   48
jmolscript: load "" {1 1 1} spacegroup "x,y,z" unitcell [{      7.258087     0.000000     0.000000 }, {     -2.917651     5.944904     0.000000 }, {      0.000000     0.000000     0.000000 }]
Hf     0.236196     4.045180    16.112102     2.306162
Hf     3.843666     5.829591    19.292157     2.192065
Hf     3.168709     1.699838    22.497311     2.187072
Hf    -0.405756     3.438253    25.583814     2.341384
Hf     3.577652     3.773599    16.471578     2.124935
Hf    -0.028112     5.580832    19.755552     2.182498
Hf    -0.724516     1.416516    22.933719     2.182635
Hf     2.945511     3.175476    26.125778     2.324133
Hf     1.065860     0.719827    16.386546     2.341035
Hf     4.749356     2.457701    19.473259     2.185977
Hf     1.156593     4.272989    22.678497     2.192578
Hf     0.423753     0.112757    25.858133     2.305975
Hf     4.972705     0.982538    15.844666     2.324500
Hf     1.384380     2.741106    19.036725     2.182429
Hf    -2.229668     4.521575    22.214934     2.182954
Hf     4.340513     0.384754    25.499244     2.124985
O     -0.364366     2.039459    15.563758    -1.117088
O      3.252726     3.874258    18.718380    -1.099064
O     -0.368250     5.678043    21.909893    -1.113984
O      6.175662     1.524767    25.059226    -1.161877
O      2.072553     4.753367    15.407796    -1.097900
O      1.429661     0.575110    18.472433    -1.122886
O      5.084597     2.379371    21.694879    -1.106281
O      1.440810     4.174886    24.837748    -1.171910
O      1.742413     2.633313    16.911092    -1.161937
O     -1.889601     4.424346    20.060467    -1.113873
O      4.665173     0.283411    23.251771    -1.099243
O      1.024366     2.118568    26.406770    -1.117084
O      6.477365    -0.016848    17.132612    -1.171790
O      2.833552     1.778055    20.275146    -1.105750
O     -0.769833     3.582453    23.497927    -1.123329
O      2.927582     5.349688    26.563109    -1.097719
O      3.001641     0.238587    15.900739    -1.105013
O     -0.523030     2.007386    19.224333    -1.071865
O      3.124296     3.816284    22.390958    -1.063688
O     -0.465978     5.549140    25.843737    -1.094957
O      4.541383     2.091750    17.465479    -1.089828
O      0.943404     3.940265    20.630551    -1.064774
O     -2.609476     5.720728    23.865336    -1.087591
O      3.838828     1.610570    27.032129    -1.023205
O     -1.791674     4.554028    16.125616    -1.094528
O      4.793601     0.341125    19.579151    -1.063442
O      1.183223     2.149832    22.746867    -1.071992
O      4.916317     3.919761    26.069370    -1.105117
O      4.079537     2.547867    14.938525    -1.022629
O      0.351138     4.381561    18.105024    -1.087498
O      6.974856     0.217364    21.339977    -1.064193
O      3.377166     2.066294    24.505049    -1.089284
 
 Chargemol version 3.5 September 26, 2017.
See ddec.sourceforge.net for latest version.
 
Computational parameters:
Number of radial integration shells =    100
Cutoff radius (pm) =    500
Error in the integrated total number of electrons before renormalization (e) =    2.7244E-05
Charge convergence tolerance =    1.0000E-05
Minimum radius for electron cloud penetration fitting (pm) =    200
Minimum decay exponent for electron density of buried atom tails =   1.7500
Maximum decay exponent for electron density of buried atom tails =  2.5000
Number of iterations to convergence =      7
 
The following XYZ coordinates are in angstroms. The atomic dipoles and quadrupoles are in atomic units.
atom number, atomic symbol, x, y, z, net_charge, dipole_x, dipole_y, dipole_z, dipole_mag, Qxy, Qxz, Qyz,Q(x^2-y^2), Q(3z^2 - R^2), three eigenvalues of traceless quadrupole moment tensor
    1 Hf     0.236196     4.045180    16.112102     2.306162    -0.036497     0.011960    -0.143331     0.148388    -0.018691     0.037769    -0.012556     0.023545     0.917117    -0.175061    -0.134234     0.309295
    2 Hf     3.843666     5.829591    19.292157     2.192065    -0.050832    -0.006759     0.002080     0.051322     0.018300    -0.014672    -0.000259     0.032636     0.068949    -0.036604     0.003889     0.032716
    3 Hf     3.168709     1.699838    22.497311     2.187072    -0.043887    -0.006620     0.018014     0.047899     0.021572    -0.016398    -0.010780     0.014190     0.088439    -0.037462    -0.003630     0.041092
    4 Hf    -0.405756     3.438253    25.583814     2.341384    -0.033597    -0.004562     0.148565     0.152385     0.060787     0.002676     0.021738     0.005951     1.002629    -0.228309    -0.106893     0.335202
    5 Hf     3.577652     3.773599    16.471578     2.124935    -0.008402     0.003296    -0.037612     0.038680     0.050300    -0.013246    -0.036326     0.022315     0.096751    -0.071922     0.003554     0.068367
    6 Hf    -0.028112     5.580832    19.755552     2.182498     0.005368    -0.010457    -0.035205     0.037116     0.006306    -0.023492    -0.007920     0.030553     0.058113    -0.026580    -0.011995     0.038574
    7 Hf    -0.724516     1.416516    22.933719     2.182635    -0.001027    -0.010587    -0.040161     0.041545     0.007190    -0.037672    -0.026243     0.015076     0.060794    -0.038051    -0.018902     0.056953
    8 Hf     2.945511     3.175476    26.125778     2.324133    -0.002525     0.015962     0.107979     0.109181     0.009874    -0.096251     0.073867     0.103337     0.863104    -0.212159    -0.107949     0.320108
    9 Hf     1.065860     0.719827    16.386546     2.341035     0.034888     0.004669    -0.148511     0.152625     0.060111     0.002630     0.021613     0.006362     1.001208    -0.227407    -0.107309     0.334717
   10 Hf     4.749356     2.457701    19.473259     2.185977     0.043874     0.006310    -0.017851     0.047785     0.021711    -0.016617    -0.010485     0.015193     0.087723    -0.037641    -0.003400     0.041041
   11 Hf     1.156593     4.272989    22.678497     2.192578     0.049364     0.006556    -0.001756     0.049828     0.018046    -0.014767    -0.000468     0.033429     0.070012    -0.036800     0.003698     0.033101
   12 Hf     0.423753     0.112757    25.858133     2.305975     0.037697    -0.012123     0.143183     0.148558    -0.019100     0.037806    -0.012630     0.023150     0.917764    -0.175422    -0.134098     0.309519
   13 Hf     4.972705     0.982538    15.844666     2.324500     0.002291    -0.015504    -0.108074     0.109204     0.010420    -0.096385     0.073736     0.103711     0.863365    -0.212563    -0.107620     0.320183
   14 Hf     1.384380     2.741106    19.036725     2.182429    -0.000044     0.010688     0.040426     0.041815     0.006599    -0.037325    -0.026663     0.014445     0.060839    -0.038479    -0.018147     0.056626
   15 Hf    -2.229668     4.521575    22.214934     2.182954    -0.005730     0.010504     0.034513     0.036528     0.005689    -0.023834    -0.008310     0.030160     0.061052    -0.026832    -0.012420     0.039252
   16 Hf     4.340513     0.384754    25.499244     2.124985     0.008027    -0.003291     0.037898     0.038878     0.050724    -0.013833    -0.036007     0.021341     0.095431    -0.071715     0.003050     0.068664
   17 O     -0.364366     2.039459    15.563758    -1.117088    -0.030429     0.022938    -0.093400     0.100874    -0.026244    -0.025172     0.016873    -0.013402     0.007877    -0.032689    -0.012907     0.045597
   18 O      3.252726     3.874258    18.718380    -1.099064    -0.042781     0.015711    -0.002935     0.045669    -0.027543    -0.007535     0.000575     0.018199     0.063511    -0.039851     0.013323     0.026528
   19 O     -0.368250     5.678043    21.909893    -1.113984    -0.045701     0.022541     0.029261     0.058761    -0.029909    -0.009365    -0.000414     0.019501     0.048096    -0.040091     0.011994     0.028097
   20 O      6.175662     1.524767    25.059226    -1.161877    -0.072406     0.004402     0.020575     0.075402    -0.029583     0.007166     0.012159     0.010066     0.087878    -0.047189     0.015042     0.032147
   21 O      2.072553     4.753367    15.407796    -1.097900     0.023370     0.009131    -0.128277     0.130708     0.018016     0.015830    -0.017190    -0.007216     0.028626    -0.035178     0.012700     0.022477
   22 O      1.429661     0.575110    18.472433    -1.122886     0.043947    -0.020583    -0.009572     0.049463     0.009409    -0.028737     0.013723    -0.003293    -0.070276    -0.044682     0.017914     0.026768
   23 O      5.084597     2.379371    21.694879    -1.106281     0.041518    -0.021733    -0.048316     0.067309     0.004866    -0.029403     0.017348     0.002819    -0.041717    -0.040576     0.010220     0.030356
   24 O      1.440810     4.174886    24.837748    -1.171910     0.066781     0.004343    -0.040241     0.078089    -0.001860    -0.032473     0.016710    -0.000380    -0.010182    -0.036830     0.000290     0.036540
   25 O      1.742413     2.633313    16.911092    -1.161937     0.072522    -0.004000    -0.020965     0.075597    -0.029828     0.006965     0.012038     0.009727     0.089091    -0.047499     0.015025     0.032474
   26 O     -1.889601     4.424346    20.060467    -1.113873     0.045894    -0.022372    -0.029385     0.058909    -0.029995    -0.009097    -0.000565     0.019994     0.047661    -0.040164     0.012200     0.027964
   27 O      4.665173     0.283411    23.251771    -1.099243     0.042712    -0.016137     0.002934     0.045753    -0.027328    -0.007674     0.000831     0.017657     0.063993    -0.039630     0.012907     0.026723
   28 O      1.024366     2.118568    26.406770    -1.117084     0.030246    -0.023180     0.093469     0.100939    -0.026124    -0.024793     0.016931    -0.013318     0.007277    -0.032268    -0.013049     0.045317
   29 O      6.477365    -0.016848    17.132612    -1.171790    -0.067093    -0.004181     0.040677     0.078572    -0.002090    -0.032539     0.016923    -0.001126    -0.010516    -0.037043     0.000357     0.036686
   30 O      2.833552     1.778055    20.275146    -1.105750    -0.041160     0.021638     0.047902     0.066760     0.004791    -0.029590     0.017506     0.002451    -0.041324    -0.040755     0.010226     0.030529
   31 O     -0.769833     3.582453    23.497927    -1.123329    -0.044176     0.020422     0.009662     0.049618     0.009194    -0.028832     0.013991    -0.003161    -0.070740    -0.044896     0.018052     0.026844
   32 O      2.927582     5.349688    26.563109    -1.097719    -0.023478    -0.008968     0.127805     0.130253     0.017604     0.015641    -0.017354    -0.006949     0.028277    -0.034795     0.012260     0.022534
   33 O      3.001641     0.238587    15.900739    -1.105013    -0.003745     0.042250    -0.048562     0.064478    -0.009880     0.035084     0.010273    -0.050628     0.211866    -0.071791    -0.008263     0.080054
   34 O     -0.523030     2.007386    19.224333    -1.071865    -0.012105     0.040838     0.007244     0.043206    -0.004962     0.028309     0.009836    -0.063786     0.226933    -0.075680    -0.006158     0.081838
   35 O      3.124296     3.816284    22.390958    -1.063688    -0.015259     0.039084    -0.003149     0.042075    -0.005101     0.024242     0.006989    -0.061652     0.261009    -0.078452    -0.012483     0.090935
   36 O     -0.465978     5.549140    25.843737    -1.094957     0.000614     0.042693     0.052930     0.068005    -0.003987     0.001866    -0.015204    -0.049281     0.283890    -0.072279    -0.024323     0.096602
   37 O      4.541383     2.091750    17.465479    -1.089828    -0.004771    -0.028694     0.036222     0.046456     0.026567     0.003169    -0.021754     0.054113    -0.235755    -0.084085     0.006686     0.077399
   38 O      0.943404     3.940265    20.630551    -1.064774     0.021324    -0.043058     0.023746     0.053596     0.042426    -0.000894    -0.026411     0.064258    -0.212758    -0.080473    -0.009219     0.089692
   39 O     -2.609476     5.720728    23.865336    -1.087591     0.021208    -0.035590    -0.013236     0.043493     0.034412    -0.008579    -0.023648     0.066205    -0.213736    -0.078191    -0.007103     0.085294
   40 O      3.838828     1.610570    27.032129    -1.023205     0.026452    -0.026052     0.124430     0.129851     0.067114    -0.018659     0.015155     0.065953    -0.278518    -0.100297    -0.021191     0.121488
   41 O     -1.791674     4.554028    16.125616    -1.094528    -0.001000    -0.042473    -0.053007     0.067931    -0.003910     0.002101    -0.015115    -0.049760     0.283552    -0.072449    -0.024030     0.096480
   42 O      4.793601     0.341125    19.579151    -1.063442     0.015078    -0.038603     0.002791     0.041537    -0.005337     0.024519     0.006792    -0.063014     0.260342    -0.079121    -0.011640     0.090761
   43 O      1.183223     2.149832    22.746867    -1.071992     0.012363    -0.041114    -0.007117     0.043518    -0.005107     0.028411     0.010070    -0.063525     0.225801    -0.075463    -0.006102     0.081565
   44 O      4.916317     3.919761    26.069370    -1.105117     0.003995    -0.042003     0.048372     0.064187    -0.010324     0.034921     0.010367    -0.050653     0.212352    -0.071966    -0.008158     0.080124
   45 O      4.079537     2.547867    14.938525    -1.022629    -0.026220     0.026502    -0.123650     0.129147     0.067272    -0.018410     0.015444     0.066788    -0.279647    -0.100687    -0.021292     0.121979
   46 O      0.351138     4.381561    18.105024    -1.087498    -0.021601     0.035989     0.013601     0.044123     0.034805    -0.008897    -0.023375     0.066240    -0.214514    -0.078269    -0.007492     0.085761
   47 O      6.974856     0.217364    21.339977    -1.064193    -0.021671     0.043308    -0.023726     0.053928     0.042010    -0.001243    -0.026111     0.063983    -0.213030    -0.080257    -0.009090     0.089347
   48 O      3.377166     2.066294    24.505049    -1.089284     0.004548     0.028991    -0.035796     0.046288     0.026399     0.003071    -0.021410     0.053707    -0.234579    -0.083544     0.006606     0.076939
 
The sperically averaged electron density of each atom fit to a function of the form exp(a - br) for r >=rmin_cloud_penetration
atom number,atomic symbol, x, y, z, a, b, Rsquared where a and b are in atomic units and Rsquared is the squared correlation coefficient
    1 Hf     0.236196     4.045180    16.112102    -0.010261     1.769934     0.999903
    2 Hf     3.843666     5.829591    19.292157     0.064822     1.750582     0.999997
    3 Hf     3.168709     1.699838    22.497311     0.053323     1.748820     0.999997
    4 Hf    -0.405756     3.438253    25.583814    -0.115854     1.754906     0.999971
    5 Hf     3.577652     3.773599    16.471578     0.308059     1.791328     0.999936
    6 Hf    -0.028112     5.580832    19.755552     0.073197     1.751457     0.999993
    7 Hf    -0.724516     1.416516    22.933719     0.086608     1.752806     0.999997
    8 Hf     2.945511     3.175476    26.125778    -0.034231     1.766125     0.999937
    9 Hf     1.065860     0.719827    16.386546    -0.115282     1.754613     0.999970
   10 Hf     4.749356     2.457701    19.473259     0.055603     1.748668     0.999998
   11 Hf     1.156593     4.272989    22.678497     0.062748     1.750512     0.999997
   12 Hf     0.423753     0.112757    25.858133    -0.009678     1.770352     0.999903
   13 Hf     4.972705     0.982538    15.844666    -0.036443     1.765799     0.999937
   14 Hf     1.384380     2.741106    19.036725     0.086850     1.752626     0.999997
   15 Hf    -2.229668     4.521575    22.214934     0.071283     1.750912     0.999994
   16 Hf     4.340513     0.384754    25.499244     0.307693     1.791260     0.999936
   17 O     -0.364366     2.039459    15.563758    -1.414556     1.718992     0.999865
   18 O      3.252726     3.874258    18.718380    -0.720464     1.751314     0.999995
   19 O     -0.368250     5.678043    21.909893    -0.710596     1.750025     0.999997
   20 O      6.175662     1.524767    25.059226    -0.643625     1.754064     0.999997
   21 O      2.072553     4.753367    15.407796    -1.279381     1.725221     0.999837
   22 O      1.429661     0.575110    18.472433    -0.664670     1.755150     0.999996
   23 O      5.084597     2.379371    21.694879    -0.722136     1.749917     0.999996
   24 O      1.440810     4.174886    24.837748    -0.647440     1.753644     0.999994
   25 O      1.742413     2.633313    16.911092    -0.641759     1.754059     0.999997
   26 O     -1.889601     4.424346    20.060467    -0.713959     1.750022     0.999996
   27 O      4.665173     0.283411    23.251771    -0.720664     1.751331     0.999995
   28 O      1.024366     2.118568    26.406770    -1.414544     1.718984     0.999865
   29 O      6.477365    -0.016848    17.132612    -0.643501     1.754157     0.999994
   30 O      2.833552     1.778055    20.275146    -0.725629     1.749935     0.999996
   31 O     -0.769833     3.582453    23.497927    -0.665137     1.755159     0.999996
   32 O      2.927582     5.349688    26.563109    -1.279253     1.725106     0.999840
   33 O      3.001641     0.238587    15.900739    -1.138104     1.731906     0.999834
   34 O     -0.523030     2.007386    19.224333    -0.746399     1.751245     0.999997
   35 O      3.124296     3.816284    22.390958    -0.773629     1.749086     0.999998
   36 O     -0.465978     5.549140    25.843737    -1.020678     1.736455     0.999984
   37 O      4.541383     2.091750    17.465479    -0.704014     1.755522     0.999994
   38 O      0.943404     3.940265    20.630551    -0.788828     1.747730     0.999998
   39 O     -2.609476     5.720728    23.865336    -0.710225     1.755262     0.999998
   40 O      3.838828     1.610570    27.032129    -1.010961     1.762652     0.999525
   41 O     -1.791674     4.554028    16.125616    -1.023354     1.736590     0.999982
   42 O      4.793601     0.341125    19.579151    -0.773474     1.749088     0.999998
   43 O      1.183223     2.149832    22.746867    -0.747791     1.751255     0.999997
   44 O      4.916317     3.919761    26.069370    -1.138974     1.731445     0.999839
   45 O      4.079537     2.547867    14.938525    -1.012748     1.762556     0.999520
   46 O      0.351138     4.381561    18.105024    -0.711284     1.755247     0.999998
   47 O      6.974856     0.217364    21.339977    -0.792207     1.747746     0.999998
   48 O      3.377166     2.066294    24.505049    -0.709311     1.755551     0.999995
 
 2023/06/05  19:57:29
