   72
jmolscript: load "" {1 1 1} spacegroup "x,y,z" unitcell [{      7.214186     0.000000    -0.046730 }, {      0.000000    18.054656     0.000000 }, {     -1.841345     0.000000     9.861977 }]
Mn     2.433235     4.439477     0.437696     1.360424
Mn     3.860278    13.466805     4.446563     1.360424
Mn     2.939606    13.615179     9.377551     1.360424
Mn     1.512563     4.587851     5.368684     1.360424
Mn     5.065116     4.445454     8.748549     1.363340
Mn    -0.612948    13.472782     5.997686     1.363340
Mn     0.307725    13.609202     1.066698     1.363340
Mn     5.985789     4.581874     3.817561     1.363340
Mn     5.409597    17.998398     1.682877     1.365496
Mn     0.883917     8.971070     3.201382     1.365496
Mn    -0.036756     0.056258     8.132370     1.365496
Mn     4.488924     9.083586     6.613865     1.365496
Mn     0.939265    18.006035     3.227185     1.358040
Mn     5.354249     8.978707     1.657074     1.358040
Mn     4.433576     0.048621     6.588062     1.358040
Mn     0.018592     9.075949     8.158173     1.358040
O     -0.786800     5.246141     9.562294    -0.561630
O      5.238969    14.273469     5.183941    -0.561630
O      6.159641    12.808515     0.252953    -0.561630
O      0.133872     3.781187     4.631306    -0.561630
O      1.308116     3.554095     9.210838    -0.364037
O      3.144052    12.581423     5.535397    -0.364037
O      4.064725    14.500561     0.604409    -0.364037
O      2.228789     5.473233     4.279850    -0.364037
O      3.401764     5.556050     0.976435    -0.341555
O      2.891750    14.583378     3.907823    -0.341555
O      1.971077    12.498606     8.838812    -0.341555
O      2.481091     3.471278     5.907424    -0.341555
O      1.916248     3.529396     1.616559    -0.366459
O      4.377265    12.556724     3.267699    -0.366459
O      3.456593    14.525260     8.198688    -0.366459
O      0.995576     5.497932     6.547548    -0.366459
O      4.389345     3.476207     9.790590    -0.362185
O      0.062823    12.503535     4.955646    -0.362185
O      0.983496    14.578449     0.024657    -0.362185
O      5.310018     5.551121     4.859601    -0.362185
O      4.058699     5.564337     8.288048    -0.341487
O      0.393470    14.591665     6.458188    -0.341487
O      1.314142    12.490319     1.527199    -0.341487
O      4.979371     3.462991     3.357059    -0.341487
O      5.590204     3.620482     7.510395    -0.386110
O     -1.138036    12.647810     7.235840    -0.386110
O     -0.217363    14.434174     2.304852    -0.386110
O      6.510877     5.406846     2.579407    -0.386110
O     -0.435982     0.752283     2.480161    -0.562631
O     -0.484690     9.779611     2.450828    -0.562631
O     -1.405363    17.302373     7.381816    -0.562631
O     -1.356655     8.275045     7.411149    -0.562631
O      5.925592    17.155101     0.453637    -0.384855
O      0.367922     8.127773     4.430622    -0.384855
O     -0.552751     0.899555     9.361610    -0.384855
O      5.004919     9.926883     5.384625    -0.384855
O      4.401194     1.056342     1.213947    -0.339727
O      1.892320    10.083670     3.670312    -0.339727
O      0.971647    16.998314     8.601300    -0.339727
O      3.480521     7.970986     6.144935    -0.339727
O      4.740418    17.044480     2.743176    -0.365066
O      1.553095     8.017152     2.141082    -0.365066
O      0.632423     1.010176     7.072071    -0.365066
O      3.819746    10.037504     7.674165    -0.365066
O      1.659423    17.109549     2.150401    -0.360269
O      4.634091     8.082221     2.733857    -0.360269
O      3.713418     0.945107     7.664846    -0.360269
O      0.738750     9.972435     7.081390    -0.360269
O      1.905740     1.073819     3.759171    -0.343684
O      4.387774    10.101147     1.125088    -0.343684
O      3.467101    16.980837     6.056076    -0.343684
O      0.985067     7.953509     8.690159    -0.343684
O      0.417198    17.107816     4.412957    -0.367604
O      5.876316     8.080488     0.471302    -0.367604
O      4.955643     0.946840     5.402290    -0.367604
O     -0.503475     9.974168     9.343945    -0.367604
 
 Chargemol version 3.5 September 26, 2017.
See ddec.sourceforge.net for latest version.
 
Computational parameters:
Number of radial integration shells =    100
Cutoff radius (pm) =    500
Error in the integrated total number of electrons before renormalization (e) =    4.9993E-06
Charge convergence tolerance =    1.0000E-05
Minimum radius for electron cloud penetration fitting (pm) =    200
Minimum decay exponent for electron density of buried atom tails =   1.7500
Maximum decay exponent for electron density of buried atom tails =  2.5000
Number of iterations to convergence =      7
 
The following XYZ coordinates are in angstroms. The atomic dipoles and quadrupoles are in atomic units.
atom number, atomic symbol, x, y, z, net_charge, dipole_x, dipole_y, dipole_z, dipole_mag, Qxy, Qxz, Qyz,Q(x^2-y^2), Q(3z^2 - R^2), three eigenvalues of traceless quadrupole moment tensor
    1 Mn     2.433235     4.439477     0.437696     1.360424    -0.009121     0.034506    -0.002783     0.035800    -0.060445     0.010853    -0.030228    -0.033143    -0.067633    -0.055121    -0.027775     0.082897
    2 Mn     3.860278    13.466805     4.446563     1.360424     0.009121     0.034506     0.002783     0.035800     0.060445     0.010853     0.030228    -0.033143    -0.067633    -0.055121    -0.027775     0.082897
    3 Mn     2.939606    13.615179     9.377551     1.360424     0.009121    -0.034506     0.002783     0.035800    -0.060445     0.010853    -0.030228    -0.033143    -0.067633    -0.055121    -0.027775     0.082897
    4 Mn     1.512563     4.587851     5.368684     1.360424    -0.009121    -0.034506    -0.002783     0.035800     0.060445     0.010853     0.030228    -0.033143    -0.067633    -0.055121    -0.027775     0.082897
    5 Mn     5.065116     4.445454     8.748549     1.363340     0.008192     0.034611     0.004168     0.035811     0.061418     0.011935     0.033099    -0.029084    -0.055538    -0.057905    -0.025490     0.083394
    6 Mn    -0.612948    13.472782     5.997686     1.363340    -0.008192     0.034611    -0.004168     0.035811    -0.061418     0.011935    -0.033099    -0.029084    -0.055538    -0.057905    -0.025490     0.083394
    7 Mn     0.307725    13.609202     1.066698     1.363340    -0.008192    -0.034611    -0.004168     0.035811     0.061418     0.011935     0.033099    -0.029084    -0.055538    -0.057905    -0.025490     0.083394
    8 Mn     5.985789     4.581874     3.817561     1.363340     0.008192    -0.034611     0.004168     0.035811    -0.061418     0.011935    -0.033099    -0.029084    -0.055538    -0.057905    -0.025490     0.083394
    9 Mn     5.409597    17.998398     1.682877     1.365496     0.010492     0.034251     0.001446     0.035851     0.062752     0.009056     0.028005    -0.022789    -0.054910    -0.058164    -0.022377     0.080540
   10 Mn     0.883917     8.971070     3.201382     1.365496    -0.010492     0.034251    -0.001446     0.035851    -0.062752     0.009056    -0.028005    -0.022789    -0.054910    -0.058164    -0.022377     0.080540
   11 Mn    -0.036756     0.056258     8.132370     1.365496    -0.010492    -0.034251    -0.001446     0.035851     0.062752     0.009056     0.028005    -0.022789    -0.054910    -0.058164    -0.022377     0.080540
   12 Mn     4.488924     9.083586     6.613865     1.365496     0.010492    -0.034251     0.001446     0.035851    -0.062752     0.009056    -0.028005    -0.022789    -0.054910    -0.058164    -0.022377     0.080540
   13 Mn     0.939265    18.006035     3.227185     1.358040    -0.009298     0.033900    -0.006192     0.035693    -0.060144     0.011681    -0.034336    -0.035113    -0.064233    -0.056776    -0.027889     0.084665
   14 Mn     5.354249     8.978707     1.657074     1.358040     0.009298     0.033900     0.006192     0.035693     0.060144     0.011681     0.034336    -0.035113    -0.064233    -0.056776    -0.027889     0.084665
   15 Mn     4.433576     0.048621     6.588062     1.358040     0.009298    -0.033900     0.006192     0.035693    -0.060144     0.011681    -0.034336    -0.035113    -0.064233    -0.056776    -0.027889     0.084665
   16 Mn     0.018592     9.075949     8.158173     1.358040    -0.009298    -0.033900    -0.006192     0.035693     0.060144     0.011681     0.034336    -0.035113    -0.064233    -0.056776    -0.027889     0.084665
   17 O     -0.786800     5.246141     9.562294    -0.561630    -0.001277     0.107582     0.004028     0.107665    -0.005161     0.017645     0.001474    -0.002599    -0.033703    -0.023290     0.006199     0.017091
   18 O      5.238969    14.273469     5.183941    -0.561630     0.001277     0.107582    -0.004028     0.107665     0.005161     0.017645    -0.001474    -0.002599    -0.033703    -0.023290     0.006199     0.017091
   19 O      6.159641    12.808515     0.252953    -0.561630     0.001277    -0.107582    -0.004028     0.107665    -0.005161     0.017645     0.001474    -0.002599    -0.033703    -0.023290     0.006199     0.017091
   20 O      0.133872     3.781187     4.631306    -0.561630    -0.001277    -0.107582     0.004028     0.107665     0.005161     0.017645    -0.001474    -0.002599    -0.033703    -0.023290     0.006199     0.017091
   21 O      1.308116     3.554095     9.210838    -0.364037     0.080565    -0.094802    -0.108364     0.164987    -0.035342     0.029569     0.007924     0.002523     0.115657    -0.061730     0.009780     0.051949
   22 O      3.144052    12.581423     5.535397    -0.364037    -0.080565    -0.094802     0.108364     0.164987     0.035342     0.029569    -0.007924     0.002523     0.115657    -0.061730     0.009780     0.051949
   23 O      4.064725    14.500561     0.604409    -0.364037    -0.080565     0.094802     0.108364     0.164987    -0.035342     0.029569     0.007924     0.002523     0.115657    -0.061730     0.009780     0.051949
   24 O      2.228789     5.473233     4.279850    -0.364037     0.080565     0.094802    -0.108364     0.164987     0.035342     0.029569    -0.007924     0.002523     0.115657    -0.061730     0.009780     0.051949
   25 O      3.401764     5.556050     0.976435    -0.341555     0.086974     0.121891     0.050057     0.157885    -0.018152     0.026711    -0.004142    -0.051912    -0.126142    -0.056244     0.001904     0.054339
   26 O      2.891750    14.583378     3.907823    -0.341555    -0.086974     0.121891    -0.050057     0.157885     0.018152     0.026711     0.004142    -0.051912    -0.126142    -0.056244     0.001904     0.054339
   27 O      1.971077    12.498606     8.838812    -0.341555    -0.086974    -0.121891    -0.050057     0.157885    -0.018152     0.026711    -0.004142    -0.051912    -0.126142    -0.056244     0.001904     0.054339
   28 O      2.481091     3.471278     5.907424    -0.341555     0.086974    -0.121891     0.050057     0.157885     0.018152     0.026711     0.004142    -0.051912    -0.126142    -0.056244     0.001904     0.054339
   29 O      1.916248     3.529396     1.616559    -0.366459    -0.047525    -0.097136     0.120312     0.161768    -0.007920    -0.015711    -0.027510     0.074855    -0.092276    -0.056925     0.001142     0.055783
   30 O      4.377265    12.556724     3.267699    -0.366459     0.047525    -0.097136    -0.120312     0.161768     0.007920    -0.015711     0.027510     0.074855    -0.092276    -0.056925     0.001142     0.055783
   31 O      3.456593    14.525260     8.198688    -0.366459     0.047525     0.097136    -0.120312     0.161768    -0.007920    -0.015711    -0.027510     0.074855    -0.092276    -0.056925     0.001142     0.055783
   32 O      0.995576     5.497932     6.547548    -0.366459    -0.047525     0.097136     0.120312     0.161768     0.007920    -0.015711     0.027510     0.074855    -0.092276    -0.056925     0.001142     0.055783
   33 O      4.389345     3.476207     9.790590    -0.362185    -0.075799    -0.102076     0.102898     0.163563     0.027355     0.036234    -0.009630    -0.000257     0.118884    -0.058528     0.001649     0.056879
   34 O      0.062823    12.503535     4.955646    -0.362185     0.075799    -0.102076    -0.102898     0.163563    -0.027355     0.036234     0.009630    -0.000257     0.118884    -0.058528     0.001649     0.056879
   35 O      0.983496    14.578449     0.024657    -0.362185     0.075799     0.102076    -0.102898     0.163563     0.027355     0.036234    -0.009630    -0.000257     0.118884    -0.058528     0.001649     0.056879
   36 O      5.310018     5.551121     4.859601    -0.362185    -0.075799     0.102076     0.102898     0.163563    -0.027355     0.036234     0.009630    -0.000257     0.118884    -0.058528     0.001649     0.056879
   37 O      4.058699     5.564337     8.288048    -0.341487    -0.092037     0.120341    -0.038673     0.156360     0.015445     0.025061     0.015470    -0.051503    -0.128149    -0.055616    -0.000788     0.056404
   38 O      0.393470    14.591665     6.458188    -0.341487     0.092037     0.120341     0.038673     0.156360    -0.015445     0.025061    -0.015470    -0.051503    -0.128149    -0.055616    -0.000788     0.056404
   39 O      1.314142    12.490319     1.527199    -0.341487     0.092037    -0.120341     0.038673     0.156360     0.015445     0.025061     0.015470    -0.051503    -0.128149    -0.055616    -0.000788     0.056404
   40 O      4.979371     3.462991     3.357059    -0.341487    -0.092037    -0.120341    -0.038673     0.156360    -0.015445     0.025061    -0.015470    -0.051503    -0.128149    -0.055616    -0.000788     0.056404
   41 O      5.590204     3.620482     7.510395    -0.386110     0.047473    -0.079865    -0.128508     0.158576     0.013856    -0.014980     0.029825     0.092669    -0.057946    -0.062466     0.002842     0.059625
   42 O     -1.138036    12.647810     7.235840    -0.386110    -0.047473    -0.079865     0.128508     0.158576    -0.013856    -0.014980    -0.029825     0.092669    -0.057946    -0.062466     0.002842     0.059625
   43 O     -0.217363    14.434174     2.304852    -0.386110    -0.047473     0.079865     0.128508     0.158576     0.013856    -0.014980     0.029825     0.092669    -0.057946    -0.062466     0.002842     0.059625
   44 O      6.510877     5.406846     2.579407    -0.386110     0.047473     0.079865    -0.128508     0.158576    -0.013856    -0.014980    -0.029825     0.092669    -0.057946    -0.062466     0.002842     0.059625
   45 O     -0.435982     0.752283     2.480161    -0.562631     0.002313     0.107467    -0.002281     0.107516     0.004233     0.017303    -0.000221    -0.001759    -0.031541    -0.022131     0.005260     0.016871
   46 O     -0.484690     9.779611     2.450828    -0.562631    -0.002313     0.107467     0.002281     0.107516    -0.004233     0.017303     0.000221    -0.001759    -0.031541    -0.022131     0.005260     0.016871
   47 O     -1.405363    17.302373     7.381816    -0.562631    -0.002313    -0.107467     0.002281     0.107516     0.004233     0.017303    -0.000221    -0.001759    -0.031541    -0.022131     0.005260     0.016871
   48 O     -1.356655     8.275045     7.411149    -0.562631     0.002313    -0.107467    -0.002281     0.107516    -0.004233     0.017303     0.000221    -0.001759    -0.031541    -0.022131     0.005260     0.016871
   49 O      5.925592    17.155101     0.453637    -0.384855     0.046368    -0.079814    -0.128349     0.158094     0.014804    -0.017478     0.027369     0.094137    -0.059769    -0.061407    -0.000259     0.061666
   50 O      0.367922     8.127773     4.430622    -0.384855    -0.046368    -0.079814     0.128349     0.158094    -0.014804    -0.017478    -0.027369     0.094137    -0.059769    -0.061407    -0.000259     0.061666
   51 O     -0.552751     0.899555     9.361610    -0.384855    -0.046368     0.079814     0.128349     0.158094     0.014804    -0.017478     0.027369     0.094137    -0.059769    -0.061407    -0.000259     0.061666
   52 O      5.004919     9.926883     5.384625    -0.384855     0.046368     0.079814    -0.128349     0.158094    -0.014804    -0.017478    -0.027369     0.094137    -0.059769    -0.061407    -0.000259     0.061666
   53 O      4.401194     1.056342     1.213947    -0.339727    -0.091733     0.119432    -0.044304     0.156977     0.015383     0.026968     0.009340    -0.050812    -0.122720    -0.055350     0.002104     0.053247
   54 O      1.892320    10.083670     3.670312    -0.339727     0.091733     0.119432     0.044304     0.156977    -0.015383     0.026968    -0.009340    -0.050812    -0.122720    -0.055350     0.002104     0.053247
   55 O      0.971647    16.998314     8.601300    -0.339727     0.091733    -0.119432     0.044304     0.156977     0.015383     0.026968     0.009340    -0.050812    -0.122720    -0.055350     0.002104     0.053247
   56 O      3.480521     7.970986     6.144935    -0.339727    -0.091733    -0.119432    -0.044304     0.156977    -0.015383     0.026968    -0.009340    -0.050812    -0.122720    -0.055350     0.002104     0.053247
   57 O      4.740418    17.044480     2.743176    -0.365066    -0.075507    -0.103103     0.104483     0.165070     0.028365     0.037023    -0.010414     0.001179     0.113931    -0.059436     0.002954     0.056482
   58 O      1.553095     8.017152     2.141082    -0.365066     0.075507    -0.103103    -0.104483     0.165070    -0.028365     0.037023     0.010414     0.001179     0.113931    -0.059436     0.002954     0.056482
   59 O      0.632423     1.010176     7.072071    -0.365066     0.075507     0.103103    -0.104483     0.165070     0.028365     0.037023    -0.010414     0.001179     0.113931    -0.059436     0.002954     0.056482
   60 O      3.819746    10.037504     7.674165    -0.365066    -0.075507     0.103103     0.104483     0.165070    -0.028365     0.037023     0.010414     0.001179     0.113931    -0.059436     0.002954     0.056482
   61 O      1.659423    17.109549     2.150401    -0.360269     0.080201    -0.094545    -0.107643     0.164189    -0.035523     0.028425     0.006556     0.002076     0.121252    -0.061814     0.009151     0.052664
   62 O      4.634091     8.082221     2.733857    -0.360269    -0.080201    -0.094545     0.107643     0.164189     0.035523     0.028425    -0.006556     0.002076     0.121252    -0.061814     0.009151     0.052664
   63 O      3.713418     0.945107     7.664846    -0.360269    -0.080201     0.094545     0.107643     0.164189    -0.035523     0.028425     0.006556     0.002076     0.121252    -0.061814     0.009151     0.052664
   64 O      0.738750     9.972435     7.081390    -0.360269     0.080201     0.094545    -0.107643     0.164189     0.035523     0.028425    -0.006556     0.002076     0.121252    -0.061814     0.009151     0.052664
   65 O      1.905740     1.073819     3.759171    -0.343684     0.086899     0.120296     0.044609     0.154960    -0.017338     0.025608    -0.009270    -0.051713    -0.132107    -0.056497     0.000475     0.056022
   66 O      4.387774    10.101147     1.125088    -0.343684    -0.086899     0.120296    -0.044609     0.154960     0.017338     0.025608     0.009270    -0.051713    -0.132107    -0.056497     0.000475     0.056022
   67 O      3.467101    16.980837     6.056076    -0.343684    -0.086899    -0.120296    -0.044609     0.154960    -0.017338     0.025608    -0.009270    -0.051713    -0.132107    -0.056497     0.000475     0.056022
   68 O      0.985067     7.953509     8.690159    -0.343684     0.086899    -0.120296     0.044609     0.154960     0.017338     0.025608     0.009270    -0.051713    -0.132107    -0.056497     0.000475     0.056022
   69 O      0.417198    17.107816     4.412957    -0.367604    -0.047220    -0.097706     0.119959     0.161760    -0.007129    -0.015143    -0.029121     0.075619    -0.091792    -0.058289     0.002468     0.055822
   70 O      5.876316     8.080488     0.471302    -0.367604     0.047220    -0.097706    -0.119959     0.161760     0.007129    -0.015143     0.029121     0.075619    -0.091792    -0.058289     0.002468     0.055822
   71 O      4.955643     0.946840     5.402290    -0.367604     0.047220     0.097706    -0.119959     0.161760    -0.007129    -0.015143    -0.029121     0.075619    -0.091792    -0.058289     0.002468     0.055822
   72 O     -0.503475     9.974168     9.343945    -0.367604    -0.047220     0.097706     0.119959     0.161760     0.007129    -0.015143     0.029121     0.075619    -0.091792    -0.058289     0.002468     0.055822
 
The sperically averaged electron density of each atom fit to a function of the form exp(a - br) for r >=rmin_cloud_penetration
atom number,atomic symbol, x, y, z, a, b, Rsquared where a and b are in atomic units and Rsquared is the squared correlation coefficient
    1 Mn     2.433235     4.439477     0.437696    -0.608489     1.766131     0.999798
    2 Mn     3.860278    13.466805     4.446563    -0.608489     1.766131     0.999798
    3 Mn     2.939606    13.615179     9.377551    -0.608489     1.766131     0.999798
    4 Mn     1.512563     4.587851     5.368684    -0.608489     1.766131     0.999798
    5 Mn     5.065116     4.445454     8.748549    -0.621193     1.763853     0.999790
    6 Mn    -0.612948    13.472782     5.997686    -0.621193     1.763853     0.999790
    7 Mn     0.307725    13.609202     1.066698    -0.621193     1.763853     0.999790
    8 Mn     5.985789     4.581874     3.817561    -0.621193     1.763853     0.999790
    9 Mn     5.409597    17.998398     1.682877    -0.606931     1.765577     0.999820
   10 Mn     0.883917     8.971070     3.201382    -0.606931     1.765577     0.999820
   11 Mn    -0.036756     0.056258     8.132370    -0.606931     1.765577     0.999820
   12 Mn     4.488924     9.083586     6.613865    -0.606931     1.765577     0.999820
   13 Mn     0.939265    18.006035     3.227185    -0.623324     1.764208     0.999770
   14 Mn     5.354249     8.978707     1.657074    -0.623324     1.764208     0.999770
   15 Mn     4.433576     0.048621     6.588062    -0.623324     1.764208     0.999770
   16 Mn     0.018592     9.075949     8.158173    -0.623324     1.764208     0.999770
   17 O     -0.786800     5.246141     9.562294    -1.150418     1.751944     0.999993
   18 O      5.238969    14.273469     5.183941    -1.150418     1.751944     0.999993
   19 O      6.159641    12.808515     0.252953    -1.150418     1.751944     0.999993
   20 O      0.133872     3.781187     4.631306    -1.150418     1.751944     0.999993
   21 O      1.308116     3.554095     9.210838    -1.386503     1.754274     0.999998
   22 O      3.144052    12.581423     5.535397    -1.386503     1.754274     0.999998
   23 O      4.064725    14.500561     0.604409    -1.386503     1.754274     0.999998
   24 O      2.228789     5.473233     4.279850    -1.386503     1.754274     0.999998
   25 O      3.401764     5.556050     0.976435    -1.548728     1.747722     0.999999
   26 O      2.891750    14.583378     3.907823    -1.548728     1.747722     0.999999
   27 O      1.971077    12.498606     8.838812    -1.548728     1.747722     0.999999
   28 O      2.481091     3.471278     5.907424    -1.548728     1.747722     0.999999
   29 O      1.916248     3.529396     1.616559    -1.482561     1.749128     0.999998
   30 O      4.377265    12.556724     3.267699    -1.482561     1.749128     0.999998
   31 O      3.456593    14.525260     8.198688    -1.482561     1.749128     0.999998
   32 O      0.995576     5.497932     6.547548    -1.482561     1.749128     0.999998
   33 O      4.389345     3.476207     9.790590    -1.448885     1.749911     0.999998
   34 O      0.062823    12.503535     4.955646    -1.448885     1.749911     0.999998
   35 O      0.983496    14.578449     0.024657    -1.448885     1.749911     0.999998
   36 O      5.310018     5.551121     4.859601    -1.448885     1.749911     0.999998
   37 O      4.058699     5.564337     8.288048    -1.592692     1.746397     0.999997
   38 O      0.393470    14.591665     6.458188    -1.592692     1.746397     0.999997
   39 O      1.314142    12.490319     1.527199    -1.592692     1.746397     0.999997
   40 O      4.979371     3.462991     3.357059    -1.592692     1.746397     0.999997
   41 O      5.590204     3.620482     7.510395    -1.293913     1.761353     0.999983
   42 O     -1.138036    12.647810     7.235840    -1.293913     1.761353     0.999983
   43 O     -0.217363    14.434174     2.304852    -1.293913     1.761353     0.999983
   44 O      6.510877     5.406846     2.579407    -1.293913     1.761353     0.999983
   45 O     -0.435982     0.752283     2.480161    -1.143478     1.752858     0.999991
   46 O     -0.484690     9.779611     2.450828    -1.143478     1.752858     0.999991
   47 O     -1.405363    17.302373     7.381816    -1.143478     1.752858     0.999991
   48 O     -1.356655     8.275045     7.411149    -1.143478     1.752858     0.999991
   49 O      5.925592    17.155101     0.453637    -1.293925     1.760327     0.999987
   50 O      0.367922     8.127773     4.430622    -1.293925     1.760327     0.999987
   51 O     -0.552751     0.899555     9.361610    -1.293925     1.760327     0.999987
   52 O      5.004919     9.926883     5.384625    -1.293925     1.760327     0.999987
   53 O      4.401194     1.056342     1.213947    -1.565775     1.746936     0.999998
   54 O      1.892320    10.083670     3.670312    -1.565775     1.746936     0.999998
   55 O      0.971647    16.998314     8.601300    -1.565775     1.746936     0.999998
   56 O      3.480521     7.970986     6.144935    -1.565775     1.746936     0.999998
   57 O      4.740418    17.044480     2.743176    -1.428806     1.751169     0.999999
   58 O      1.553095     8.017152     2.141082    -1.428806     1.751169     0.999999
   59 O      0.632423     1.010176     7.072071    -1.428806     1.751169     0.999999
   60 O      3.819746    10.037504     7.674165    -1.428806     1.751169     0.999999
   61 O      1.659423    17.109549     2.150401    -1.413648     1.751577     0.999998
   62 O      4.634091     8.082221     2.733857    -1.413648     1.751577     0.999998
   63 O      3.713418     0.945107     7.664846    -1.413648     1.751577     0.999998
   64 O      0.738750     9.972435     7.081390    -1.413648     1.751577     0.999998
   65 O      1.905740     1.073819     3.759171    -1.573915     1.747324     0.999998
   66 O      4.387774    10.101147     1.125088    -1.573915     1.747324     0.999998
   67 O      3.467101    16.980837     6.056076    -1.573915     1.747324     0.999998
   68 O      0.985067     7.953509     8.690159    -1.573915     1.747324     0.999998
   69 O      0.417198    17.107816     4.412957    -1.473825     1.749780     0.999998
   70 O      5.876316     8.080488     0.471302    -1.473825     1.749780     0.999998
   71 O      4.955643     0.946840     5.402290    -1.473825     1.749780     0.999998
   72 O     -0.503475     9.974168     9.343945    -1.473825     1.749780     0.999998
 
 2023/04/17  10:02:25
