   48
jmolscript: load "" {1 1 1} spacegroup "x,y,z" unitcell [{      7.334865     0.000000     0.000000 }, {     -2.942679     6.003801     0.000000 }, {      0.000000     0.000000    42.086899 }]
Zr     1.949917     0.793318    16.496465     2.347174
Zr     5.646981     2.621097    19.795363     2.418454
Zr     2.002608     4.429839    23.010254     2.416212
Zr     1.316674     0.208836    26.238193     2.541068
Zr     3.794865     3.709941    16.379379     2.553501
Zr     0.188656     5.468802    19.509845     2.419479
Zr    -0.496488     1.305569    22.748769     2.425688
Zr     3.157050     3.118488    25.966480     2.516778
Zr     5.906174     1.047633    16.120461     2.516564
Zr     2.224940     2.860169    19.338130     2.426653
Zr    -1.403080     4.700736    22.577012     2.420366
Zr     5.268693     0.456355    25.707478     2.554112
Zr     0.411971     3.957946    15.848411     2.540377
Zr     4.117715     5.739700    19.076602     2.416396
Zr     3.416216     1.544574    22.291536     2.420111
Zr    -0.221438     3.373188    25.590476     2.347614
O     -0.483221     5.554663    14.944679    -1.060768
O      6.022169     1.402182    18.132846    -1.200637
O      2.439200     3.209794    21.405649    -1.172368
O     -1.193880     5.090299    24.602360    -1.203225
O     -1.582037     3.224293    15.905691    -1.195967
O      2.190617     5.009488    19.262837    -1.176710
O      1.490612     0.842663    22.465440    -1.169228
O      5.202539     2.603080    25.945900    -1.196797
O      4.481380     5.631439    16.933832    -1.277928
O      3.755537     1.446352    20.117622    -1.238645
O      0.100745     3.275049    23.345603    -1.221197
O      3.767076     5.125799    26.517903    -1.221208
O      1.940357     2.960354    17.138795    -1.288404
O     -1.739106     4.781937    20.317156    -1.230216
O      4.904370     0.606888    23.577965    -1.250283
O      1.306382     2.402253    26.664492    -1.198924
O      0.421824     1.763839    15.422828    -1.198624
O      4.158696     3.558585    18.508976    -1.250226
O      0.524012     5.387217    21.769701    -1.231473
O     -0.211850     1.206200    24.947893    -1.288693
O      2.353971     5.044568    15.568533    -1.221198
O      1.627490     0.891072    18.741464    -1.221477
O      5.308298     2.718959    21.969698    -1.238878
O      1.639833     4.538021    25.153446    -1.278138
O      3.861124     1.563360    16.142304    -1.196555
O      0.237496     3.323104    19.621249    -1.168530
O      3.929641     5.159721    22.824062    -1.176187
O      3.310614     0.942417    26.180787    -1.196597
O     -0.019210     5.080663    17.484118    -1.202582
O      6.624548     0.956309    20.680829    -1.172554
O      3.040626     2.763261    23.954011    -1.200636
O     -0.730835     4.616323    27.142094    -1.060698
 
 Chargemol version 3.5 September 26, 2017.
See ddec.sourceforge.net for latest version.
 
Computational parameters:
Number of radial integration shells =    100
Cutoff radius (pm) =    500
Error in the integrated total number of electrons before renormalization (e) =    1.2074E-05
Charge convergence tolerance =    1.0000E-05
Minimum radius for electron cloud penetration fitting (pm) =    200
Minimum decay exponent for electron density of buried atom tails =   1.7500
Maximum decay exponent for electron density of buried atom tails =  2.5000
Number of iterations to convergence =      7
 
The following XYZ coordinates are in angstroms. The atomic dipoles and quadrupoles are in atomic units.
atom number, atomic symbol, x, y, z, net_charge, dipole_x, dipole_y, dipole_z, dipole_mag, Qxy, Qxz, Qyz,Q(x^2-y^2), Q(3z^2 - R^2), three eigenvalues of traceless quadrupole moment tensor
    1 Zr     1.949917     0.793318    16.496465     2.347174    -0.007414    -0.000740    -0.033880     0.034690     0.040133    -0.014179    -0.025004     0.028974     0.075336    -0.057255     0.002916     0.054339
    2 Zr     5.646981     2.621097    19.795363     2.418454     0.007946    -0.017559    -0.034067     0.039141     0.008560    -0.019170    -0.005045     0.026545     0.051621    -0.024409    -0.008231     0.032640
    3 Zr     2.002608     4.429839    23.010254     2.416212     0.003447    -0.016426    -0.035638     0.039393     0.008529    -0.028521    -0.018085     0.022288     0.049496    -0.027630    -0.017314     0.044944
    4 Zr     1.316674     0.208836    26.238193     2.541068     0.004906     0.001451     0.068517     0.068707     0.017559    -0.064459     0.049992     0.082165     0.625994    -0.160253    -0.068350     0.228603
    5 Zr     3.794865     3.709941    16.379379     2.553501     0.033643     0.004047    -0.102968     0.108401     0.047346     0.000622     0.010459     0.005063     0.715113    -0.166726    -0.071960     0.238686
    6 Zr     0.188656     5.468802    19.509845     2.419479     0.044267    -0.002241    -0.016091     0.047154     0.015840    -0.013272    -0.005473     0.016299     0.083771    -0.031868    -0.002682     0.034550
    7 Zr    -0.496488     1.305569    22.748769     2.425688     0.049032    -0.000305     0.002130     0.049079     0.013806    -0.011591    -0.001576     0.025316     0.077075    -0.031769     0.000858     0.030911
    8 Zr     3.157050     3.118488    25.966480     2.516778     0.032887    -0.013795     0.096329     0.102718    -0.014362     0.020558    -0.005137     0.019752     0.632063    -0.122852    -0.089323     0.212175
    9 Zr     5.906174     1.047633    16.120461     2.516564    -0.032559     0.013548    -0.096617     0.102852    -0.014564     0.020563    -0.005435     0.019850     0.630620    -0.122799    -0.088911     0.211711
   10 Zr     2.224940     2.860169    19.338130     2.426653    -0.049649     0.000664    -0.001932     0.049691     0.013434    -0.011863    -0.001412     0.025746     0.076646    -0.031591     0.000630     0.030961
   11 Zr    -1.403080     4.700736    22.577012     2.420366    -0.043328     0.002252     0.016511     0.046422     0.015974    -0.013487    -0.005201     0.016733     0.083278    -0.032031    -0.002494     0.034524
   12 Zr     5.268693     0.456355    25.707478     2.554112    -0.034091    -0.003100     0.103375     0.108895     0.047083     0.000251     0.010206     0.006713     0.716513    -0.166753    -0.072380     0.239132
   13 Zr     0.411971     3.957946    15.848411     2.540377    -0.004836    -0.000832    -0.068325     0.068501     0.017737    -0.064539     0.049792     0.083157     0.627540    -0.160923    -0.068143     0.229065
   14 Zr     4.117715     5.739700    19.076602     2.416396    -0.003376     0.017284     0.035404     0.039542     0.008423    -0.028114    -0.018442     0.022119     0.050690    -0.027879    -0.016963     0.044842
   15 Zr     3.416216     1.544574    22.291536     2.420111    -0.007915     0.017684     0.033762     0.038926     0.009224    -0.019194    -0.005132     0.027566     0.052739    -0.025389    -0.007754     0.033143
   16 Zr    -0.221438     3.373188    25.590476     2.347614     0.008096     0.000258     0.034088     0.035037     0.039938    -0.014118    -0.025333     0.027898     0.073532    -0.056685     0.002432     0.054254
   17 O     -0.483221     5.554663    14.944679    -1.060768    -0.027750     0.034772    -0.147398     0.153965     0.082154    -0.009598     0.004960     0.083642    -0.224622    -0.078607    -0.051169     0.129776
   18 O      6.022169     1.402182    18.132846    -1.200637    -0.026136     0.039774     0.014962     0.049889     0.026188    -0.005822    -0.021812     0.066408    -0.190856    -0.070546    -0.004739     0.075285
   19 O      2.439200     3.209794    21.405649    -1.172368    -0.023870     0.046659    -0.022463     0.057021     0.034674     0.005381    -0.025063     0.061213    -0.195136    -0.075414    -0.003571     0.078985
   20 O     -1.193880     5.090299    24.602360    -1.203225     0.003847     0.035971    -0.037897     0.052392     0.017543     0.008992    -0.020647     0.059192    -0.215546    -0.078154     0.007749     0.070406
   21 O     -1.582037     3.224293    15.905691    -1.195967    -0.006893     0.044004    -0.050204     0.067114    -0.010834     0.029416     0.004193    -0.054942     0.191270    -0.068092    -0.002372     0.070463
   22 O      2.190617     5.009488    19.262837    -1.176710    -0.016978     0.043659     0.007962     0.047516     0.000056     0.028853     0.013870    -0.063216     0.190544    -0.069740    -0.002570     0.072310
   23 O      1.490612     0.842663    22.465440    -1.169228    -0.019461     0.039926    -0.000692     0.044422    -0.001354     0.023848     0.008230    -0.059250     0.228968    -0.071742    -0.009125     0.080867
   24 O      5.202539     2.603080    25.945900    -1.196797    -0.001703     0.045310     0.058626     0.074115     0.000359     0.002510    -0.000867    -0.049033     0.265013    -0.068728    -0.019657     0.088384
   25 O      4.481380     5.631439    16.933832    -1.277928     0.083938    -0.006339    -0.019006     0.086296    -0.031525     0.008934     0.012780    -0.003239     0.081052    -0.048186     0.017337     0.030850
   26 O      3.755537     1.446352    20.117622    -1.238645     0.056720    -0.025020    -0.029964     0.068855    -0.032477    -0.010000     0.000041     0.012785     0.035340    -0.039778     0.009261     0.030517
   27 O      0.100745     3.275049    23.345603    -1.221197     0.053985    -0.016935     0.000468     0.056581    -0.028663    -0.005017     0.000738     0.005109     0.046195    -0.036632     0.013295     0.023337
   28 O      3.767076     5.125799    26.517903    -1.221208     0.038598    -0.023950     0.110961     0.119899    -0.031621    -0.019575     0.010234    -0.016132    -0.003477    -0.035064    -0.007603     0.042667
   29 O      1.940357     2.960354    17.138795    -1.288404    -0.068732    -0.000095     0.051436     0.085847    -0.003805    -0.034536     0.017798    -0.002999    -0.007562    -0.038628    -0.000980     0.039609
   30 O     -1.739106     4.781937    20.317156    -1.230216    -0.044451     0.026119     0.056010     0.076126    -0.000148    -0.030563     0.015406    -0.003638    -0.043494    -0.039893     0.008164     0.031729
   31 O      4.904370     0.606888    23.577965    -1.250283    -0.047661     0.025076     0.021195     0.057876     0.005045    -0.027901     0.010872    -0.004512    -0.076577    -0.043180     0.017409     0.025771
   32 O      1.306382     2.402253    26.664492    -1.198924    -0.024413    -0.003977     0.151151     0.153162     0.014530     0.015672    -0.018147    -0.009184     0.059060    -0.035167     0.004535     0.030632
   33 O      0.421824     1.763839    15.422828    -1.198624     0.024844     0.004537    -0.151019     0.153116     0.014470     0.016093    -0.018103    -0.010015     0.058781    -0.035382     0.004646     0.030736
   34 O      4.158696     3.558585    18.508976    -1.250226     0.047828    -0.025109    -0.021088     0.057988     0.004980    -0.027465     0.010894    -0.004707    -0.076496    -0.042826     0.017488     0.025338
   35 O      0.524012     5.387217    21.769701    -1.231473     0.045157    -0.026252    -0.056264     0.076772    -0.000190    -0.030238     0.015399    -0.002876    -0.043239    -0.039472     0.007866     0.031606
   36 O     -0.211850     1.206200    24.947893    -1.288693     0.068985     0.000229    -0.051393     0.086024    -0.003805    -0.034754     0.017199    -0.002863    -0.008029    -0.038635    -0.000833     0.039468
   37 O      2.353971     5.044568    15.568533    -1.221198    -0.039003     0.023722    -0.111042     0.120060    -0.031685    -0.019874     0.010477    -0.016244    -0.002784    -0.035292    -0.007674     0.042966
   38 O      1.627490     0.891072    18.741464    -1.221477    -0.054542     0.016777    -0.000687     0.057068    -0.028419    -0.005300     0.000569     0.005569     0.045626    -0.036351     0.013057     0.023294
   39 O      5.308298     2.718959    21.969698    -1.238878    -0.056303     0.024902     0.029630     0.068323    -0.031970    -0.010259    -0.000235     0.013106     0.036447    -0.039584     0.009503     0.030080
   40 O      1.639833     4.538021    25.153446    -1.278138    -0.083740     0.006463     0.019332     0.086186    -0.031201     0.008992     0.013103    -0.003041     0.080795    -0.047940     0.016993     0.030947
   41 O      3.861124     1.563360    16.142304    -1.196555     0.001621    -0.045225    -0.057636     0.073280     0.000252     0.002664    -0.001220    -0.049048     0.264928    -0.068725    -0.019643     0.088368
   42 O      0.237496     3.323104    19.621249    -1.168530     0.019016    -0.040034     0.000384     0.044322    -0.000725     0.023682     0.008103    -0.059214     0.228997    -0.071629    -0.009192     0.080821
   43 O      3.929641     5.159721    22.824062    -1.176187     0.017071    -0.043554    -0.008062     0.047470     0.000261     0.028730     0.013853    -0.062409     0.190269    -0.069249    -0.002944     0.072193
   44 O      3.310614     0.942417    26.180787    -1.196597     0.006465    -0.044058     0.050622     0.067421    -0.010214     0.030060     0.004256    -0.055821     0.193048    -0.068810    -0.002467     0.071277
   45 O     -0.019210     5.080663    17.484118    -1.202582    -0.003334    -0.035576     0.037774     0.051997     0.017372     0.009156    -0.020473     0.059173    -0.214766    -0.077858     0.007665     0.070193
   46 O      6.624548     0.956309    20.680829    -1.172554     0.023895    -0.046340     0.022492     0.056783     0.034629     0.005374    -0.024911     0.061395    -0.195778    -0.075487    -0.003624     0.079112
   47 O      3.040626     2.763261    23.954011    -1.200636     0.025528    -0.039417    -0.014247     0.049075     0.025947    -0.005699    -0.021926     0.066235    -0.191464    -0.070780    -0.004369     0.075149
   48 O     -0.730835     4.616323    27.142094    -1.060698     0.027982    -0.034837     0.147508     0.154128     0.082343    -0.009820     0.004982     0.083452    -0.223470    -0.078421    -0.051299     0.129720
 
The sperically averaged electron density of each atom fit to a function of the form exp(a - br) for r >=rmin_cloud_penetration
atom number,atomic symbol, x, y, z, a, b, Rsquared where a and b are in atomic units and Rsquared is the squared correlation coefficient
    1 Zr     1.949917     0.793318    16.496465     0.177272     1.930016     0.998988
    2 Zr     5.646981     2.621097    19.795363     0.272480     1.981018     0.999762
    3 Zr     2.002608     4.429839    23.010254     0.274141     1.974878     0.999826
    4 Zr     1.316674     0.208836    26.238193     1.336834     2.269643     0.999652
    5 Zr     3.794865     3.709941    16.379379     1.197171     2.237792     0.999548
    6 Zr     0.188656     5.468802    19.509845     0.257765     1.977298     0.999825
    7 Zr    -0.496488     1.305569    22.748769     0.357456     1.998725     0.999860
    8 Zr     3.157050     3.118488    25.966480     1.313879     2.258688     0.999885
    9 Zr     5.906174     1.047633    16.120461     1.315262     2.258870     0.999884
   10 Zr     2.224940     2.860169    19.338130     0.385191     2.005399     0.999870
   11 Zr    -1.403080     4.700736    22.577012     0.281820     1.983138     0.999840
   12 Zr     5.268693     0.456355    25.707478     1.196764     2.237889     0.999549
   13 Zr     0.411971     3.957946    15.848411     1.336932     2.269497     0.999650
   14 Zr     4.117715     5.739700    19.076602     0.272821     1.974612     0.999826
   15 Zr     3.416216     1.544574    22.291536     0.306423     1.989159     0.999784
   16 Zr    -0.221438     3.373188    25.590476     0.178362     1.930339     0.998977
   17 O     -0.483221     5.554663    14.944679    -0.928864     1.741322     0.999813
   18 O      6.022169     1.402182    18.132846    -0.545483     1.754929     0.999999
   19 O      2.439200     3.209794    21.405649    -0.634530     1.747914     0.999999
   20 O     -1.193880     5.090299    24.602360    -0.539506     1.755326     0.999998
   21 O     -1.582037     3.224293    15.905691    -0.935382     1.733685     0.999895
   22 O      2.190617     5.009488    19.262837    -0.597713     1.751254     0.999997
   23 O      1.490612     0.842663    22.465440    -0.624001     1.748837     0.999998
   24 O      5.202539     2.603080    25.945900    -0.804110     1.740352     0.999977
   25 O      4.481380     5.631439    16.933832    -0.526488     1.753071     0.999995
   26 O      3.755537     1.446352    20.117622    -0.575124     1.750249     0.999998
   27 O      0.100745     3.275049    23.345603    -0.584485     1.751411     0.999997
   28 O      3.767076     5.125799    26.517903    -1.110586     1.726827     0.999920
   29 O      1.940357     2.960354    17.138795    -0.522425     1.753536     0.999992
   30 O     -1.739106     4.781937    20.317156    -0.593302     1.749801     0.999997
   31 O      4.904370     0.606888    23.577965    -0.533144     1.754482     0.999997
   32 O      1.306382     2.402253    26.664492    -1.008727     1.729980     0.999919
   33 O      0.421824     1.763839    15.422828    -1.008123     1.730124     0.999917
   34 O      4.158696     3.558585    18.508976    -0.531633     1.754452     0.999997
   35 O      0.524012     5.387217    21.769701    -0.588381     1.749763     0.999997
   36 O     -0.211850     1.206200    24.947893    -0.523098     1.753356     0.999992
   37 O      2.353971     5.044568    15.568533    -1.111769     1.726537     0.999925
   38 O      1.627490     0.891072    18.741464    -0.585341     1.751418     0.999997
   39 O      5.308298     2.718959    21.969698    -0.573930     1.750297     0.999998
   40 O      1.639833     4.538021    25.153446    -0.525237     1.753057     0.999995
   41 O      3.861124     1.563360    16.142304    -0.804075     1.740363     0.999977
   42 O      0.237496     3.323104    19.621249    -0.626483     1.748895     0.999998
   43 O      3.929641     5.159721    22.824062    -0.599811     1.751276     0.999997
   44 O      3.310614     0.942417    26.180787    -0.935204     1.733840     0.999893
   45 O     -0.019210     5.080663    17.484118    -0.539502     1.755349     0.999998
   46 O      6.624548     0.956309    20.680829    -0.632479     1.747897     0.999999
   47 O      3.040626     2.763261    23.954011    -0.547363     1.754964     0.999999
   48 O     -0.730835     4.616323    27.142094    -0.927484     1.741889     0.999807
 
 2024/06/21  20:45:30
