   48
jmolscript: load "" {1 1 1} spacegroup "x,y,z" unitcell [{      7.258087     0.000000     0.000000 }, {     -2.917651     5.944904     0.000000 }, {      0.000000     0.000000    41.970402 }]
Hf     0.236886     4.043153    16.108030     2.315994
Hf     3.844983     5.830560    19.294465     2.193804
Hf     3.168615     1.700724    22.497646     2.187198
Hf    -0.405702     3.437183    25.588683     2.355257
Hf     3.576773     3.776750    16.480518     2.125601
Hf    -0.028361     5.580600    19.753412     2.184121
Hf    -0.723677     1.417188    22.934768     2.183282
Hf     2.940312     3.180524    26.124938     2.335186
Hf     1.065889     0.720891    16.381803     2.354886
Hf     4.749385     2.456856    19.472882     2.186833
Hf     1.155211     4.271901    22.676063     2.193416
Hf     0.423169     0.114790    25.862288     2.315638
Hf     4.977793     0.977746    15.845590     2.335643
Hf     1.383541     2.740286    19.035592     2.182948
Hf    -2.229540     4.521759    22.216906     2.183756
Hf     4.341418     0.381550    25.490052     2.126128
O     -0.369613     2.043228    15.570809    -1.113451
O      3.252906     3.874972    18.716533    -1.098455
O     -0.367916     5.678013    21.909599    -1.113651
O      6.174969     1.526164    25.061828    -1.162556
O      2.074071     4.753129    15.413672    -1.094873
O      1.429401     0.574825    18.469831    -1.124889
O      5.084758     2.379085    21.696054    -1.105820
O      1.438915     4.175463    24.837958    -1.173904
O      1.743149     2.631886    16.908700    -1.163221
O     -1.890030     4.424305    20.060719    -1.113901
O      4.664845     0.282763    23.253533    -1.098280
O      1.029853     2.114870    26.399719    -1.113403
O      6.479114    -0.017365    17.132444    -1.173534
O      2.833365     1.778216    20.274013    -1.105474
O     -0.769553     3.582696    23.500445    -1.124865
O      2.926167     5.349908    26.556898    -1.094844
O      3.003221     0.242879    15.901536    -1.100714
O     -0.522807     2.006946    19.224920    -1.070786
O      3.123726     3.816896    22.391209    -1.063157
O     -0.465763     5.552118    25.845499    -1.090264
O      4.541952     2.090621    17.465269    -1.092718
O      0.943154     3.939902    20.629166    -1.064101
O     -2.609707     5.721257    23.868148    -1.089259
O      3.838145     1.609476    27.031709    -0.997323
O     -1.791798     4.551294    16.123727    -1.089827
O      4.794079     0.340447    19.578941    -1.063236
O      1.182914     2.150284    22.746405    -1.070657
O      4.915088     3.915522    26.068908    -1.100744
O      4.080252     2.548967    14.938987    -0.997039
O      0.351342     4.380925    18.102170    -1.089015
O      6.974995     0.217643    21.341404    -1.063600
O      3.376567     2.067531    24.505259    -1.092129
 
 Chargemol version 3.5 September 26, 2017.
See ddec.sourceforge.net for latest version.
 
Computational parameters:
Number of radial integration shells =    100
Cutoff radius (pm) =    500
Error in the integrated total number of electrons before renormalization (e) =    4.3425E-05
Charge convergence tolerance =    1.0000E-05
Minimum radius for electron cloud penetration fitting (pm) =    200
Minimum decay exponent for electron density of buried atom tails =   1.7500
Maximum decay exponent for electron density of buried atom tails =  2.5000
Number of iterations to convergence =      7
 
The following XYZ coordinates are in angstroms. The atomic dipoles and quadrupoles are in atomic units.
atom number, atomic symbol, x, y, z, net_charge, dipole_x, dipole_y, dipole_z, dipole_mag, Qxy, Qxz, Qyz,Q(x^2-y^2), Q(3z^2 - R^2), three eigenvalues of traceless quadrupole moment tensor
    1 Hf     0.236886     4.043153    16.108030     2.315994    -0.035397     0.009915    -0.149907     0.154348    -0.021835     0.036647    -0.012044     0.022558     0.939585    -0.181339    -0.135157     0.316496
    2 Hf     3.844983     5.830560    19.294465     2.193804    -0.050503    -0.006464     0.002351     0.050970     0.018257    -0.015182    -0.001042     0.032847     0.070726    -0.036830     0.003113     0.033717
    3 Hf     3.168615     1.700724    22.497646     2.187198    -0.043822    -0.006411     0.017880     0.047762     0.021386    -0.016651    -0.010537     0.014670     0.088461    -0.037373    -0.003763     0.041136
    4 Hf    -0.405702     3.437183    25.588683     2.355257    -0.032701    -0.005176     0.155605     0.159088     0.063378     0.004619     0.021314     0.005251     1.026637    -0.234797    -0.108398     0.343195
    5 Hf     3.576773     3.776750    16.480518     2.125601    -0.009131     0.004600    -0.036427     0.037834     0.051453    -0.013642    -0.036071     0.021195     0.096058    -0.072509     0.003503     0.069006
    6 Hf    -0.028361     5.580600    19.753412     2.184121     0.005288    -0.010282    -0.035356     0.037199     0.006705    -0.023887    -0.008106     0.030774     0.059606    -0.027048    -0.012270     0.039319
    7 Hf    -0.723677     1.417188    22.934768     2.183282    -0.001132    -0.010420    -0.040402     0.041739     0.007106    -0.037702    -0.026283     0.015134     0.059639    -0.038175    -0.018640     0.056815
    8 Hf     2.940312     3.180524    26.124938     2.335186    -0.005780     0.018556     0.112797     0.114459     0.007818    -0.099441     0.075985     0.107174     0.883716    -0.217062    -0.111327     0.328389
    9 Hf     1.065889     0.720891    16.381803     2.354886     0.034382     0.004989    -0.155258     0.159098     0.063040     0.004593     0.020851     0.005363     1.027798    -0.234642    -0.108898     0.343540
   10 Hf     4.749385     2.456856    19.472882     2.186833     0.043552     0.006282    -0.017943     0.047520     0.021590    -0.016640    -0.010255     0.015490     0.087657    -0.037571    -0.003347     0.040917
   11 Hf     1.155211     4.271901    22.676063     2.193416     0.049306     0.006621    -0.001727     0.049779     0.018587    -0.015222    -0.000842     0.032584     0.070389    -0.036987     0.003323     0.033665
   12 Hf     0.423169     0.114790    25.862288     2.315638     0.036770    -0.010257     0.149475     0.154272    -0.022148     0.036591    -0.012127     0.022909     0.940237    -0.181801    -0.134907     0.316709
   13 Hf     4.977793     0.977746    15.845590     2.335643     0.005556    -0.017839    -0.112350     0.113893     0.007518    -0.099666     0.076529     0.107180     0.883353    -0.217099    -0.111441     0.328539
   14 Hf     1.383541     2.740286    19.035592     2.182948    -0.000088     0.010712     0.040556     0.041947     0.006905    -0.037320    -0.026087     0.014717     0.059705    -0.037897    -0.018402     0.056299
   15 Hf    -2.229540     4.521759    22.216906     2.183756    -0.005582     0.010457     0.034297     0.036288     0.005745    -0.024067    -0.008595     0.029918     0.062456    -0.027017    -0.012713     0.039729
   16 Hf     4.341418     0.381550    25.490052     2.126128     0.009113    -0.005267     0.035935     0.037445     0.051402    -0.013630    -0.036112     0.020605     0.095380    -0.072289     0.003326     0.068963
   17 O     -0.369613     2.043228    15.570809    -1.113451    -0.029859     0.021897    -0.096128     0.103013    -0.025524    -0.026433     0.018197    -0.014132     0.013600    -0.033365    -0.013513     0.046878
   18 O      3.252906     3.874972    18.716533    -1.098455    -0.043038     0.015959    -0.000953     0.045912    -0.027481    -0.007665     0.000744     0.017657     0.062648    -0.039563     0.013026     0.026537
   19 O     -0.367916     5.678013    21.909599    -1.113651    -0.045835     0.023173     0.028619     0.058795    -0.029746    -0.009530    -0.000301     0.019711     0.047876    -0.039932     0.011723     0.028209
   20 O      6.174969     1.526164    25.061828    -1.162556    -0.073242     0.004210     0.020852     0.076269    -0.029815     0.006474     0.011980     0.009904     0.096035    -0.048440     0.013844     0.034595
   21 O      2.074071     4.753129    15.413672    -1.094873     0.024773     0.008121    -0.131786     0.134340     0.019520     0.016607    -0.017746    -0.007706     0.032037    -0.037371     0.013714     0.023657
   22 O      1.429401     0.574825    18.469831    -1.124889     0.044259    -0.020351    -0.009347     0.049602     0.009548    -0.028561     0.013821    -0.002485    -0.073792    -0.045199     0.018017     0.027182
   23 O      5.084758     2.379085    21.696054    -1.105820     0.041524    -0.021620    -0.048201     0.067194     0.004899    -0.029430     0.017254     0.002115    -0.041721    -0.040607     0.010441     0.030166
   24 O      1.438915     4.175463    24.837958    -1.173904     0.066135     0.003930    -0.041930     0.078405    -0.002264    -0.032923     0.017087    -0.000980    -0.001441    -0.036486    -0.001327     0.037814
   25 O      1.743149     2.631886    16.908700    -1.163221     0.073210    -0.003971    -0.020903     0.076239    -0.029676     0.006665     0.011926     0.010169     0.096926    -0.048493     0.013644     0.034849
   26 O     -1.890030     4.424305    20.060719    -1.113901     0.045995    -0.023021    -0.028849     0.058972    -0.029735    -0.009185    -0.000413     0.020229     0.046842    -0.039807     0.011815     0.027992
   27 O      4.664845     0.282763    23.253533    -1.098280     0.042829    -0.016181     0.000450     0.045786    -0.027523    -0.007286     0.000635     0.017921     0.063458    -0.039757     0.013443     0.026314
   28 O      1.029853     2.114870    26.399719    -1.113403     0.029905    -0.022158     0.096289     0.103232    -0.025651    -0.026365     0.018023    -0.014199     0.012683    -0.033390    -0.013397     0.046787
   29 O      6.479114    -0.017365    17.132444    -1.173534    -0.066245    -0.003853     0.041693     0.078368    -0.002378    -0.032936     0.017034    -0.001399    -0.002140    -0.036565    -0.001178     0.037743
   30 O      2.833365     1.778216    20.274013    -1.105474    -0.041409     0.021759     0.047870     0.066930     0.004614    -0.029531     0.017238     0.001941    -0.041641    -0.040581     0.010248     0.030333
   31 O     -0.769553     3.582696    23.500445    -1.124865    -0.044367     0.020699     0.009599     0.049891     0.009153    -0.028800     0.013795    -0.002790    -0.072623    -0.045083     0.018002     0.027081
   32 O      2.926167     5.349908    26.556898    -1.094844    -0.024528    -0.008005     0.131667     0.134171     0.019684     0.016160    -0.017780    -0.007384     0.031659    -0.037208     0.013750     0.023458
   33 O      3.003221     0.242879    15.901536    -1.100714    -0.003814     0.042652    -0.049860     0.065725    -0.010337     0.035392     0.008254    -0.054640     0.220163    -0.074798    -0.007513     0.082312
   34 O     -0.522807     2.006946    19.224920    -1.070786    -0.012590     0.041304     0.007220     0.043780    -0.004921     0.028652     0.010017    -0.063640     0.225877    -0.075581    -0.006088     0.081669
   35 O      3.123726     3.816896    22.391209    -1.063157    -0.014882     0.039291    -0.003055     0.042126    -0.005037     0.024035     0.006932    -0.061925     0.261320    -0.078559    -0.012410     0.090969
   36 O     -0.465763     5.552118    25.845499    -1.090264     0.001826     0.042522     0.055323     0.069800    -0.004344     0.003133    -0.014835    -0.050572     0.290481    -0.074091    -0.024620     0.098711
   37 O      4.541952     2.090621    17.465269    -1.092718    -0.005030    -0.028929     0.036151     0.046573     0.026977     0.003581    -0.022234     0.055269    -0.236828    -0.084727     0.006467     0.078260
   38 O      0.943154     3.939902    20.629166    -1.064101     0.021302    -0.042969     0.023156     0.053257     0.042443    -0.001142    -0.026071     0.064099    -0.213439    -0.080392    -0.009389     0.089782
   39 O     -2.609707     5.721257    23.868148    -1.089259     0.021400    -0.036074    -0.014110     0.044254     0.034269    -0.008695    -0.023330     0.065577    -0.215173    -0.078413    -0.006795     0.085208
   40 O      3.838145     1.609476    27.031709    -0.997323     0.026576    -0.026292     0.121381     0.127008     0.076560    -0.020015     0.016455     0.073995    -0.302388    -0.109174    -0.026544     0.135718
   41 O     -1.791798     4.551294    16.123727    -1.089827    -0.001990    -0.042757    -0.055865     0.070377    -0.004213     0.003323    -0.015058    -0.050280     0.289078    -0.073696    -0.024618     0.098314
   42 O      4.794079     0.340447    19.578941    -1.063236     0.015034    -0.038836     0.003179     0.041766    -0.005534     0.024185     0.006670    -0.063141     0.260845    -0.079197    -0.011614     0.090810
   43 O      1.182914     2.150284    22.746405    -1.070657     0.012879    -0.041474    -0.006857     0.043966    -0.005041     0.028472     0.010206    -0.063710     0.225795    -0.075565    -0.006048     0.081612
   44 O      4.915088     3.915522    26.068908    -1.100744     0.003961    -0.042729     0.050154     0.066007    -0.009966     0.035245     0.008430    -0.053188     0.219941    -0.073951    -0.008295     0.082247
   45 O      4.080252     2.548967    14.938987    -0.997039    -0.026615     0.026565    -0.121207     0.126906     0.076521    -0.020115     0.016829     0.074004    -0.302497    -0.109415    -0.026280     0.135695
   46 O      0.351342     4.380925    18.102170    -1.089015    -0.021408     0.035944     0.014328     0.044222     0.034597    -0.008925    -0.023168     0.065926    -0.215280    -0.078370    -0.007245     0.085614
   47 O      6.974995     0.217643    21.341404    -1.063600    -0.021663     0.043067    -0.023551     0.053653     0.042055    -0.001511    -0.026227     0.064252    -0.213066    -0.080314    -0.009201     0.089515
   48 O      3.376567     2.067531    24.505259    -1.092129     0.004779     0.029339    -0.035847     0.046569     0.027003     0.003519    -0.021873     0.054557    -0.234482    -0.083823     0.006189     0.077635
 
The sperically averaged electron density of each atom fit to a function of the form exp(a - br) for r >=rmin_cloud_penetration
atom number,atomic symbol, x, y, z, a, b, Rsquared where a and b are in atomic units and Rsquared is the squared correlation coefficient
    1 Hf     0.236886     4.043153    16.108030    -0.010870     1.772773     0.999899
    2 Hf     3.844983     5.830560    19.294465     0.063825     1.750684     0.999997
    3 Hf     3.168615     1.700724    22.497646     0.053843     1.748797     0.999998
    4 Hf    -0.405702     3.437183    25.588683    -0.132351     1.755390     0.999971
    5 Hf     3.576773     3.776750    16.480518     0.314619     1.793326     0.999936
    6 Hf    -0.028361     5.580600    19.753412     0.072433     1.751334     0.999994
    7 Hf    -0.723677     1.417188    22.934768     0.086859     1.752756     0.999997
    8 Hf     2.940312     3.180524    26.124938    -0.035631     1.769153     0.999933
    9 Hf     1.065889     0.720891    16.381803    -0.133572     1.754674     0.999970
   10 Hf     4.749385     2.456856    19.472882     0.055499     1.748719     0.999998
   11 Hf     1.155211     4.271901    22.676063     0.063922     1.750615     0.999997
   12 Hf     0.423169     0.114790    25.862288    -0.009008     1.772971     0.999899
   13 Hf     4.977793     0.977746    15.845590    -0.036753     1.768999     0.999933
   14 Hf     1.383541     2.740286    19.035592     0.086735     1.752717     0.999997
   15 Hf    -2.229540     4.521759    22.216906     0.070742     1.750876     0.999994
   16 Hf     4.341418     0.381550    25.490052     0.314942     1.793446     0.999936
   17 O     -0.369613     2.043228    15.570809    -1.431092     1.719935     0.999866
   18 O      3.252906     3.874972    18.716533    -0.720206     1.751467     0.999995
   19 O     -0.367916     5.678013    21.909599    -0.712168     1.749994     0.999997
   20 O      6.174969     1.526164    25.061828    -0.645189     1.754502     0.999997
   21 O      2.074071     4.753129    15.413672    -1.294424     1.726936     0.999833
   22 O      1.429401     0.574825    18.469831    -0.662337     1.755462     0.999996
   23 O      5.084758     2.379085    21.696054    -0.723509     1.749876     0.999996
   24 O      1.438915     4.175463    24.837958    -0.644892     1.754082     0.999995
   25 O      1.743149     2.631886    16.908700    -0.640129     1.754483     0.999997
   26 O     -1.890030     4.424305    20.060719    -0.714687     1.749987     0.999996
   27 O      4.664845     0.282763    23.253533    -0.722178     1.751478     0.999995
   28 O      1.029853     2.114870    26.399719    -1.431606     1.719682     0.999866
   29 O      6.479114    -0.017365    17.132444    -0.644398     1.754523     0.999994
   30 O      2.833365     1.778216    20.274013    -0.727350     1.749882     0.999996
   31 O     -0.769553     3.582696    23.500445    -0.663249     1.755479     0.999996
   32 O      2.926167     5.349908    26.556898    -1.293662     1.726629     0.999836
   33 O      3.003221     0.242879    15.901536    -1.149834     1.732590     0.999832
   34 O     -0.522807     2.006946    19.224920    -0.746264     1.751397     0.999997
   35 O      3.123726     3.816896    22.391209    -0.773926     1.749052     0.999997
   36 O     -0.465763     5.552118    25.845499    -1.029983     1.737456     0.999982
   37 O      4.541952     2.090621    17.465269    -0.699346     1.756033     0.999994
   38 O      0.943154     3.939902    20.629166    -0.790079     1.747663     0.999998
   39 O     -2.609707     5.721257    23.868148    -0.704889     1.755719     0.999998
   40 O      3.838145     1.609476    27.031709    -1.009665     1.769953     0.999495
   41 O     -1.791798     4.551294    16.123727    -1.030890     1.737426     0.999983
   42 O      4.794079     0.340447    19.578941    -0.774246     1.749038     0.999997
   43 O      1.182914     2.150284    22.746405    -0.748136     1.751421     0.999997
   44 O      4.915088     3.915522    26.068908    -1.149014     1.732786     0.999827
   45 O      4.080252     2.548967    14.938987    -1.011096     1.769663     0.999496
   46 O      0.351342     4.380925    18.102170    -0.706633     1.755714     0.999998
   47 O      6.974995     0.217643    21.341404    -0.792659     1.747687     0.999998
   48 O      3.376567     2.067531    24.505259    -0.701715     1.756054     0.999994
 
 2024/06/21  20:41:54
