   48
jmolscript: load "" {1 1 1} spacegroup "x,y,z" unitcell [{      7.334865     0.000000     0.000000 }, {     -2.942679     6.003801     0.000000 }, {      0.000000     0.000000    42.086899 }]
Zr     1.954863     0.779726    16.462585     2.338605
Zr     5.648987     2.622226    19.803696     2.412637
Zr     1.998337     4.426446    23.004657     2.412670
Zr     1.331779     0.195003    26.248420     2.510930
Zr     3.799631     3.703763    16.395414     2.514362
Zr     0.189757     5.470267    19.506562     2.416322
Zr    -0.493335     1.309477    22.760932     2.421287
Zr     3.156716     3.114412    25.951834     2.488164
Zr     5.906646     1.051908    16.135191     2.487194
Zr     2.221751     2.856230    19.325799     2.420984
Zr    -1.404140     4.699247    22.580463     2.417036
Zr     5.263943     0.462575    25.691358     2.514500
Zr     0.396797     3.971604    15.838142     2.510801
Zr     4.122010     5.743074    19.082158     2.413031
Zr     3.414179     1.543535    22.283330     2.413357
Zr    -0.226146     3.386624    25.624272     2.338995
O     -0.481437     5.549752    14.937819    -1.143613
O      6.026682     1.405784    18.142610    -1.194671
O      2.437012     3.208197    21.398915    -1.174687
O     -1.191635     5.089848    24.608715    -1.194293
O     -1.584881     3.206318    15.895675    -1.216179
O      2.190709     5.012099    19.255261    -1.180625
O      1.491174     0.839752    22.467670    -1.169542
O      5.198091     2.597220    25.933568    -1.217361
O      4.481006     5.635360    16.942965    -1.274451
O      3.758341     1.445943    20.114802    -1.238598
O      0.098712     3.278406    23.342446    -1.222410
O      3.739482     5.141871    26.549300    -1.241143
O      1.934118     2.961591    17.134460    -1.284387
O     -1.737832     4.781523    20.322627    -1.231138
O      4.902728     0.605868    23.570642    -1.244522
O      1.310791     2.407578    26.691175    -1.213092
O      0.417900     1.758345    15.396145    -1.212847
O      4.160534     3.559504    18.515795    -1.244722
O      0.522486     5.387607    21.764188    -1.231685
O     -0.205959     1.205209    24.952481    -1.283919
O      2.381942     5.028580    15.537136    -1.240931
O      1.629710     0.887650    18.744958    -1.221674
O      5.305474     2.719542    21.972644    -1.239369
O      1.639895     4.534647    25.144523    -1.274744
O      3.865150     1.569364    16.154046    -1.216828
O      0.237023     3.326088    19.619271    -1.169343
O      3.929848     5.157307    22.832185    -1.180330
O      3.313507     0.959876    26.190172    -1.216099
O     -0.021488     5.080957    17.477763    -1.194515
O      6.626749     0.957864    20.687647    -1.174565
O      3.035699     2.759905    23.944331    -1.195283
O     -0.732835     4.620687    27.148743    -1.143309
 
 Chargemol version 3.5 September 26, 2017.
See ddec.sourceforge.net for latest version.
 
Computational parameters:
Number of radial integration shells =    100
Cutoff radius (pm) =    500
Error in the integrated total number of electrons before renormalization (e) =    4.5715E-06
Charge convergence tolerance =    1.0000E-05
Minimum radius for electron cloud penetration fitting (pm) =    200
Minimum decay exponent for electron density of buried atom tails =   1.7500
Maximum decay exponent for electron density of buried atom tails =  2.5000
Number of iterations to convergence =      7
 
The following XYZ coordinates are in angstroms. The atomic dipoles and quadrupoles are in atomic units.
atom number, atomic symbol, x, y, z, net_charge, dipole_x, dipole_y, dipole_z, dipole_mag, Qxy, Qxz, Qyz,Q(x^2-y^2), Q(3z^2 - R^2), three eigenvalues of traceless quadrupole moment tensor
    1 Zr     1.954863     0.779726    16.462585     2.338605    -0.003509    -0.004510    -0.039724     0.040132     0.038861    -0.014045    -0.025413     0.029873     0.083779    -0.057766     0.003220     0.054546
    2 Zr     5.648987     2.622226    19.803696     2.412637     0.007510    -0.017440    -0.033122     0.038179     0.007893    -0.018870    -0.004519     0.027782     0.049105    -0.024168    -0.007781     0.031949
    3 Zr     1.998337     4.426446    23.004657     2.412670     0.002775    -0.016801    -0.034808     0.038750     0.009268    -0.028925    -0.019700     0.021084     0.049177    -0.028394    -0.017719     0.046113
    4 Zr     1.331779     0.195003    26.248420     2.510930     0.014552    -0.006644     0.057842     0.060014     0.022778    -0.056364     0.043736     0.074586     0.578662    -0.150276    -0.058900     0.209177
    5 Zr     3.799631     3.703763    16.395414     2.514362     0.033819     0.002361    -0.084598     0.091138     0.040271    -0.003384     0.011381     0.007717     0.642970    -0.147933    -0.066800     0.214733
    6 Zr     0.189757     5.470267    19.506562     2.416322     0.044280    -0.001844    -0.016425     0.047264     0.017067    -0.013776    -0.006393     0.014880     0.089075    -0.033548    -0.003084     0.036632
    7 Zr    -0.493335     1.309477    22.760932     2.421287     0.049695     0.000130     0.002095     0.049739     0.012385    -0.010465     0.000388     0.026947     0.070561    -0.030398     0.002296     0.028101
    8 Zr     3.156716     3.114412    25.951834     2.488164     0.033366    -0.019128     0.079176     0.088023    -0.008370     0.022197    -0.006644     0.021941     0.565865    -0.108112    -0.082490     0.190602
    9 Zr     5.906646     1.051908    16.135191     2.487194    -0.033434     0.019198    -0.078946     0.087857    -0.008653     0.022278    -0.006857     0.020776     0.566101    -0.107874    -0.082827     0.190701
   10 Zr     2.221751     2.856230    19.325799     2.420984    -0.050131    -0.000353    -0.002126     0.050177     0.012157    -0.010694     0.000505     0.027536     0.070958    -0.030545     0.002164     0.028381
   11 Zr    -1.404140     4.699247    22.580463     2.417036    -0.043917     0.001038     0.016569     0.046950     0.016774    -0.013017    -0.006242     0.015149     0.090353    -0.033520    -0.002854     0.036375
   12 Zr     5.263943     0.462575    25.691358     2.514500    -0.033739    -0.001387     0.084924     0.091391     0.040133    -0.003137     0.011417     0.006548     0.643713    -0.147858    -0.067123     0.214981
   13 Zr     0.396797     3.971604    15.838142     2.510801    -0.014014     0.006276    -0.058165     0.060158     0.022455    -0.056387     0.043739     0.073318     0.578232    -0.149543    -0.059508     0.209051
   14 Zr     4.122010     5.743074    19.082158     2.413031    -0.003044     0.017591     0.034289     0.038658     0.008934    -0.029170    -0.019732     0.021773     0.051278    -0.028903    -0.017660     0.046563
   15 Zr     3.414179     1.543535    22.283330     2.413357    -0.007722     0.018274     0.033203     0.038678     0.008561    -0.018777    -0.004793     0.028359     0.049090    -0.024751    -0.007405     0.032156
   16 Zr    -0.226146     3.386624    25.624272     2.338995     0.003810     0.004075     0.039446     0.039838     0.038741    -0.014249    -0.025000     0.029290     0.083257    -0.057308     0.003004     0.054304
   17 O     -0.481437     5.549752    14.937819    -1.143613    -0.027358     0.036415    -0.157006     0.163479     0.052317    -0.004242     0.001123     0.056261    -0.143617    -0.048689    -0.034719     0.083408
   18 O      6.026682     1.405784    18.142610    -1.194671    -0.024752     0.039299     0.011574     0.047865     0.027014    -0.006144    -0.022173     0.069059    -0.185113    -0.069271    -0.006693     0.075965
   19 O      2.437012     3.208197    21.398915    -1.174687    -0.024011     0.046600    -0.024078     0.057687     0.034130     0.005804    -0.025129     0.061289    -0.192922    -0.074934    -0.003268     0.078202
   20 O     -1.191635     5.089848    24.608715    -1.194293     0.003630     0.034717    -0.039156     0.052456     0.016159     0.008323    -0.019314     0.055626    -0.211697    -0.076098     0.008579     0.067519
   21 O     -1.584881     3.206318    15.895675    -1.216179    -0.005814     0.040456    -0.045578     0.061220    -0.008814     0.026501     0.012063    -0.041607     0.158014    -0.056367    -0.004314     0.060681
   22 O      2.190709     5.012099    19.255261    -1.180625    -0.016083     0.041832     0.007290     0.045406    -0.000417     0.028473     0.013256    -0.063754     0.189747    -0.069751    -0.001923     0.071674
   23 O      1.491174     0.839752    22.467670    -1.169542    -0.019632     0.039500    -0.000359     0.044111    -0.000669     0.023911     0.008846    -0.057705     0.229049    -0.070981    -0.010075     0.081055
   24 O      5.198091     2.597220    25.933568    -1.217361    -0.005367     0.045170     0.046647     0.065155     0.002559    -0.002195    -0.002774    -0.043785     0.241505    -0.062321    -0.018294     0.080616
   25 O      4.481006     5.635360    16.942965    -1.274451     0.080503    -0.005747    -0.017892     0.082667    -0.029300     0.010490     0.012675    -0.003554     0.053714    -0.042708     0.019167     0.023541
   26 O      3.758341     1.445943    20.114802    -1.238598     0.056230    -0.023598    -0.031772     0.068762    -0.032723    -0.010310    -0.000098     0.011655     0.038796    -0.040557     0.010136     0.030420
   27 O      0.098712     3.278406    23.342446    -1.222410     0.053380    -0.016066     0.009141     0.056490    -0.028187    -0.004477     0.000702     0.006411     0.046267    -0.036197     0.013514     0.022683
   28 O      3.739482     5.141871    26.549300    -1.241143     0.040032    -0.027418     0.101477     0.112481    -0.035064    -0.012971     0.005161    -0.011220    -0.023572    -0.033395    -0.009104     0.042499
   29 O      1.934118     2.961591    17.134460    -1.284387    -0.072494    -0.001223     0.047058     0.086437    -0.003329    -0.034394     0.016293    -0.002680    -0.036943    -0.041671     0.004321     0.037349
   30 O     -1.737832     4.781523    20.322627    -1.231138    -0.043308     0.026436     0.056161     0.075686    -0.000051    -0.029676     0.016021    -0.001648    -0.044642    -0.039388     0.007840     0.031548
   31 O      4.902728     0.605868    23.570642    -1.244522    -0.047231     0.024367     0.020401     0.056927     0.003884    -0.027658     0.010792    -0.006560    -0.068584    -0.041334     0.016442     0.024892
   32 O      1.310791     2.407578    26.691175    -1.213092    -0.021619    -0.007468     0.139397     0.141261     0.004741     0.012670    -0.015717    -0.009010     0.056133    -0.024131    -0.004553     0.028684
   33 O      0.417900     1.758345    15.396145    -1.212847     0.021327     0.007591    -0.139257     0.141085     0.004676     0.012278    -0.015857    -0.008694     0.055058    -0.023769    -0.004604     0.028372
   34 O      4.160534     3.559504    18.515795    -1.244722     0.047347    -0.024460    -0.020684     0.057165     0.003925    -0.027569     0.010978    -0.006681    -0.069189    -0.041461     0.016630     0.024830
   35 O      0.522486     5.387607    21.764188    -1.231685     0.043194    -0.026375    -0.056023     0.075498     0.000224    -0.030000     0.016302    -0.001483    -0.044650    -0.039849     0.008028     0.031821
   36 O     -0.205959     1.205209    24.952481    -1.283919     0.072085     0.001253    -0.047395     0.086280    -0.002727    -0.034509     0.015723    -0.001620    -0.036928    -0.041578     0.004563     0.037015
   37 O      2.381942     5.028580    15.537136    -1.240931    -0.040219     0.027022    -0.101500     0.112472    -0.035075    -0.013071     0.005155    -0.012196    -0.024283    -0.033473    -0.009219     0.042692
   38 O      1.629710     0.887650    18.744958    -1.221674    -0.053460     0.015751    -0.008950     0.056446    -0.028500    -0.004787     0.000456     0.006051     0.044517    -0.036241     0.013158     0.023083
   39 O      5.305474     2.719542    21.972644    -1.239369    -0.055968     0.023554     0.031527     0.068419    -0.032582    -0.010220    -0.000291     0.011926     0.038778    -0.040459     0.010263     0.030196
   40 O      1.639895     4.534647    25.144523    -1.274744    -0.080818     0.006085     0.017605     0.082937    -0.029385     0.010488     0.012565    -0.003510     0.055599    -0.042999     0.019192     0.023807
   41 O      3.865150     1.569364    16.154046    -1.216828     0.005713    -0.044857    -0.046324     0.064736     0.001884    -0.002063    -0.002774    -0.044512     0.240718    -0.062482    -0.017867     0.080349
   42 O      0.237023     3.326088    19.619271    -1.169343     0.019634    -0.039690     0.000598     0.044285    -0.000358     0.024076     0.008865    -0.057135     0.229821    -0.070856    -0.010513     0.081369
   43 O      3.929848     5.157307    22.832185    -1.180330     0.015517    -0.042442    -0.007127     0.045748     0.000083     0.028269     0.013212    -0.062707     0.190124    -0.069180    -0.002552     0.071732
   44 O      3.313507     0.959876    26.190172    -1.216099     0.006059    -0.040322     0.045317     0.060961    -0.008713     0.026233     0.012209    -0.042254     0.159525    -0.056689    -0.004365     0.061054
   45 O     -0.021488     5.080957    17.477763    -1.194515    -0.002891    -0.034783     0.039192     0.052481     0.016320     0.008111    -0.018981     0.055142    -0.212214    -0.076060     0.008592     0.067468
   46 O      6.626749     0.957864    20.687647    -1.174565     0.024289    -0.046369     0.024391     0.057750     0.034226     0.005737    -0.024884     0.061263    -0.193276    -0.074855    -0.003467     0.078322
   47 O      3.035699     2.759905    23.944331    -1.195283     0.024245    -0.039472    -0.011082     0.047630     0.026740    -0.006003    -0.022057     0.068436    -0.186777    -0.069635    -0.006155     0.075790
   48 O     -0.732835     4.620687    27.148743    -1.143309     0.027281    -0.035993     0.156540     0.162925     0.052265    -0.004267     0.001083     0.056257    -0.142278    -0.048269    -0.034871     0.083140
 
The sperically averaged electron density of each atom fit to a function of the form exp(a - br) for r >=rmin_cloud_penetration
atom number,atomic symbol, x, y, z, a, b, Rsquared where a and b are in atomic units and Rsquared is the squared correlation coefficient
    1 Zr     1.954863     0.779726    16.462585     0.084051     1.898652     0.999005
    2 Zr     5.648987     2.622226    19.803696     0.188191     1.960564     0.999690
    3 Zr     1.998337     4.426446    23.004657     0.211646     1.960536     0.999791
    4 Zr     1.331779     0.195003    26.248420     1.306704     2.248109     0.999725
    5 Zr     3.799631     3.703763    16.395414     1.259010     2.231724     0.999553
    6 Zr     0.189757     5.470267    19.506562     0.208090     1.965298     0.999797
    7 Zr    -0.493335     1.309477    22.760932     0.297862     1.984891     0.999835
    8 Zr     3.156716     3.114412    25.951834     1.291471     2.239793     0.999869
    9 Zr     5.906646     1.051908    16.135191     1.292119     2.239716     0.999866
   10 Zr     2.221751     2.856230    19.325799     0.285956     1.982005     0.999831
   11 Zr    -1.404140     4.699247    22.580463     0.221760     1.968592     0.999804
   12 Zr     5.263943     0.462575    25.691358     1.258221     2.231749     0.999554
   13 Zr     0.396797     3.971604    15.838142     1.306041     2.247850     0.999720
   14 Zr     4.122010     5.743074    19.082158     0.220473     1.962819     0.999797
   15 Zr     3.414179     1.543535    22.283330     0.214312     1.967111     0.999711
   16 Zr    -0.226146     3.386624    25.624272     0.089703     1.900433     0.999005
   17 O     -0.481437     5.549752    14.937819    -0.911224     1.724221     0.999858
   18 O      6.026682     1.405784    18.142610    -0.561927     1.753466     0.999999
   19 O      2.437012     3.208197    21.398915    -0.629865     1.748103     0.999999
   20 O     -1.191635     5.089848    24.608715    -0.558652     1.753799     0.999998
   21 O     -1.584881     3.206318    15.895675    -0.895727     1.729775     0.999919
   22 O      2.190709     5.012099    19.255261    -0.595561     1.750757     0.999997
   23 O      1.491174     0.839752    22.467670    -0.624215     1.748940     0.999998
   24 O      5.198091     2.597220    25.933568    -0.772575     1.736979     0.999983
   25 O      4.481006     5.635360    16.942965    -0.529355     1.751695     0.999995
   26 O      3.758341     1.445943    20.114802    -0.574695     1.750320     0.999998
   27 O      0.098712     3.278406    23.342446    -0.585602     1.750809     0.999997
   28 O      3.739482     5.141871    26.549300    -1.034677     1.723400     0.999939
   29 O      1.934118     2.961591    17.134460    -0.522708     1.751614     0.999992
   30 O     -1.737832     4.781523    20.322627    -0.590330     1.750012     0.999997
   31 O      4.902728     0.605868    23.570642    -0.542961     1.753462     0.999997
   32 O      1.310791     2.407578    26.691175    -0.955830     1.724551     0.999932
   33 O      0.417900     1.758345    15.396145    -0.954953     1.724757     0.999934
   34 O      4.160534     3.559504    18.515795    -0.540796     1.753471     0.999997
   35 O      0.522486     5.387607    21.764188    -0.585856     1.749963     0.999997
   36 O     -0.205959     1.205209    24.952481    -0.525428     1.751600     0.999992
   37 O      2.381942     5.028580    15.537136    -1.033226     1.723565     0.999941
   38 O      1.629710     0.887650    18.744958    -0.588530     1.750818     0.999997
   39 O      5.305474     2.719542    21.972644    -0.571431     1.750369     0.999998
   40 O      1.639895     4.534647    25.144523    -0.526799     1.751712     0.999995
   41 O      3.865150     1.569364    16.154046    -0.770536     1.737383     0.999981
   42 O      0.237023     3.326088    19.619271    -0.623226     1.748973     0.999999
   43 O      3.929848     5.157307    22.832185    -0.599387     1.750775     0.999998
   44 O      3.313507     0.959876    26.190172    -0.896071     1.729889     0.999916
   45 O     -0.021488     5.080957    17.477763    -0.556501     1.753786     0.999998
   46 O      6.626749     0.957864    20.687647    -0.630610     1.748109     0.999999
   47 O      3.035699     2.759905    23.944331    -0.559469     1.753487     0.999999
   48 O     -0.732835     4.620687    27.148743    -0.911990     1.724297     0.999850
 
 2024/06/21  20:44:14
