   48
jmolscript: load "" {1 1 1} spacegroup "x,y,z" unitcell [{      7.334865     0.000000     0.000000 }, {     -2.942679     6.003801     0.000000 }, {      0.000000     0.000000     0.000000 }]
Zr     1.957931     0.759937    16.391416     2.331007
Zr     5.650153     2.623619    19.809125     2.408330
Zr     1.991934     4.419428    23.006845     2.411083
Zr     1.331231     0.192560    26.252461     2.371020
Zr     3.806204     3.697237    16.416795     2.356269
Zr     0.190554     5.473431    19.501848     2.416701
Zr    -0.487757     1.316219    22.772506     2.421997
Zr     3.155756     3.107946    25.959620     2.383737
Zr     5.907516     1.058440    16.127447     2.383644
Zr     2.216271     2.849752    19.314309     2.420410
Zr    -1.404463     4.696119    22.585008     2.417409
Zr     5.257273     0.469059    25.670020     2.357324
Zr     0.397396     3.974138    15.834186     2.371656
Zr     4.129010     5.750327    19.080096     2.411256
Zr     3.413062     1.542238    22.277816     2.408759
Zr    -0.229507     3.406473    25.695819     2.330916
O     -0.466635     5.512444    14.934452    -1.038060
O      6.010886     1.408035    18.129689    -1.172897
O      2.431616     3.202175    21.401735    -1.177109
O     -1.199052     5.079960    24.621383    -1.174389
O     -1.599006     3.197769    15.877619    -1.180102
O      2.191560     5.013012    19.249538    -1.182589
O      1.493834     0.837692    22.479076    -1.171594
O      5.198736     2.591114    26.006295    -1.202490
O      4.477678     5.646071    16.938841    -1.242345
O      3.759776     1.447624    20.112698    -1.239100
O      0.100068     3.284812    23.339458    -1.224131
O      3.697054     5.197953    26.609231    -1.211828
O      1.942634     2.950262    17.138795    -1.256102
O     -1.737062     4.779728    20.326668    -1.230875
O      4.898792     0.602391    23.564034    -1.221069
O      1.328479     2.392413    26.714954    -1.175914
O      0.400014     1.774231    15.372661    -1.176229
O      4.164781     3.563934    18.522865    -1.220794
O      0.523062     5.389948    21.760231    -1.231499
O     -0.214078     1.216268    24.948230    -1.255852
O      2.423543     4.972180    15.477373    -1.211599
O      1.628669     0.881034    18.747272    -1.224172
O      5.303660     2.718245    21.974328    -1.239812
O      1.642762     4.523828    25.148101    -1.242566
O      3.864337     1.575271    16.080983    -1.202158
O      0.234455     3.327631    19.607150    -1.170722
O      3.929247     5.156737    22.838035    -1.182723
O      3.327459     0.968179    26.208480    -1.180758
O     -0.014943     5.089602    17.465348    -1.174144
O      6.631469     0.963424    20.684953    -1.177608
O      3.051981     2.757378    23.957420    -1.172617
O     -0.747881     4.658061    27.152405    -1.037671
 
 Chargemol version 3.5 September 26, 2017.
See ddec.sourceforge.net for latest version.
 
Computational parameters:
Number of radial integration shells =    100
Cutoff radius (pm) =    500
Error in the integrated total number of electrons before renormalization (e) =    1.1989E-05
Charge convergence tolerance =    1.0000E-05
Minimum radius for electron cloud penetration fitting (pm) =    200
Minimum decay exponent for electron density of buried atom tails =   1.7500
Maximum decay exponent for electron density of buried atom tails =  2.5000
Number of iterations to convergence =      7
 
The following XYZ coordinates are in angstroms. The atomic dipoles and quadrupoles are in atomic units.
atom number, atomic symbol, x, y, z, net_charge, dipole_x, dipole_y, dipole_z, dipole_mag, Qxy, Qxz, Qyz,Q(x^2-y^2), Q(3z^2 - R^2), three eigenvalues of traceless quadrupole moment tensor
    1 Zr     1.957931     0.759937    16.391416     2.331007    -0.001750    -0.000730    -0.048271     0.048308     0.047276    -0.009792    -0.036744     0.034259     0.167752    -0.082821     0.007133     0.075689
    2 Zr     5.650153     2.623619    19.809125     2.408330     0.007313    -0.016089    -0.028690     0.033696     0.008231    -0.019101    -0.003658     0.028452     0.046609    -0.024275    -0.007546     0.031821
    3 Zr     1.991934     4.419428    23.006845     2.411083     0.001652    -0.016223    -0.035849     0.039383     0.010288    -0.026998    -0.021458     0.022290     0.052788    -0.029863    -0.016417     0.046280
    4 Zr     1.331231     0.192560    26.252461     2.371020     0.030616    -0.014426    -0.003858     0.034064     0.047830    -0.016200     0.010239     0.067131     0.355110    -0.118778    -0.001514     0.120292
    5 Zr     3.806204     3.697237    16.416795     2.356269     0.035939     0.010119    -0.012407     0.039344     0.032437    -0.012161    -0.005029     0.001651     0.300652    -0.082688    -0.018911     0.101599
    6 Zr     0.190554     5.473431    19.501848     2.416701     0.043967    -0.000115    -0.016301     0.046892     0.017988    -0.012443    -0.008438     0.012121     0.094834    -0.034790    -0.003294     0.038084
    7 Zr    -0.487757     1.316219    22.772506     2.421997     0.051311     0.001035     0.003184     0.051420     0.011698    -0.010443     0.002584     0.028858     0.067120    -0.030454     0.003369     0.027084
    8 Zr     3.155756     3.107946    25.959620     2.383737     0.023454    -0.017742     0.020585     0.035897    -0.003179     0.000537     0.002101     0.015950     0.312962    -0.060774    -0.043575     0.104349
    9 Zr     5.907516     1.058440    16.127447     2.383644    -0.022708     0.017797    -0.020615     0.035460    -0.002700     0.000523     0.001503     0.016045     0.314439    -0.060886    -0.043942     0.104828
   10 Zr     2.216271     2.849752    19.314309     2.420410    -0.051892    -0.001506    -0.003435     0.052027     0.011897    -0.010324     0.002928     0.028451     0.067628    -0.030586     0.003522     0.027064
   11 Zr    -1.404463     4.696119    22.585008     2.417409    -0.044095     0.000255     0.016183     0.046972     0.018221    -0.012455    -0.008425     0.013325     0.094762    -0.035196    -0.002939     0.038135
   12 Zr     5.257273     0.469059    25.670020     2.357324    -0.035852    -0.010140     0.012768     0.039386     0.032127    -0.011757    -0.005595     0.001853     0.299167    -0.082099    -0.018998     0.101098
   13 Zr     0.397396     3.974138    15.834186     2.371656    -0.030103     0.013980     0.003807     0.033408     0.048049    -0.016152     0.010007     0.066746     0.353162    -0.118498    -0.001131     0.119629
   14 Zr     4.129010     5.750327    19.080096     2.411256    -0.002035     0.017039     0.035733     0.039640     0.009651    -0.026983    -0.021048     0.021442     0.052966    -0.029349    -0.016421     0.045770
   15 Zr     3.413062     1.542238    22.277816     2.408759    -0.007242     0.016635     0.028885     0.034111     0.008570    -0.018883    -0.003959     0.029699     0.048119    -0.025202    -0.006964     0.032166
   16 Zr    -0.229507     3.406473    25.695819     2.330916     0.001461     0.000808     0.048518     0.048547     0.047185    -0.009687    -0.036992     0.034297     0.166711    -0.082691     0.007134     0.075557
   17 O     -0.466635     5.512444    14.934452    -1.038060    -0.034137     0.051228    -0.229522     0.237634     0.065758     0.015372    -0.035063     0.066034     0.042148    -0.093938     0.026729     0.067210
   18 O      6.010886     1.408035    18.129689    -1.172897    -0.025890     0.037594     0.004060     0.045827     0.028908    -0.007831    -0.022037     0.062947    -0.175698    -0.066194    -0.007640     0.073834
   19 O      2.431616     3.202175    21.401735    -1.177109    -0.025100     0.047714    -0.029525     0.061468     0.033573     0.005601    -0.024718     0.059124    -0.194391    -0.074832    -0.002490     0.077322
   20 O     -1.199052     5.079960    24.621383    -1.174389     0.000349     0.037984    -0.036441     0.052639     0.015248     0.004054    -0.011964     0.046549    -0.225639    -0.077050     0.011617     0.065433
   21 O     -1.599006     3.197769    15.877619    -1.180102     0.010225     0.041335    -0.049723     0.065464    -0.001936     0.005336     0.004423    -0.044633     0.197655    -0.055595    -0.010769     0.066364
   22 O      2.191560     5.013012    19.249538    -1.182589    -0.013271     0.040773     0.005412     0.043219    -0.000684     0.026531     0.012895    -0.061830     0.202767    -0.069979    -0.004758     0.074736
   23 O      1.493834     0.837692    22.479076    -1.171594    -0.019644     0.038380     0.000701     0.043121    -0.000433     0.024475     0.009080    -0.054960     0.235241    -0.070766    -0.012497     0.083263
   24 O      5.198736     2.591114    26.006295    -1.202490    -0.005912     0.045339     0.054392     0.071057     0.010591     0.009720     0.022430    -0.029967     0.242182    -0.058762    -0.027472     0.086234
   25 O      4.477678     5.646071    16.938841    -1.242345     0.068333    -0.009523    -0.024234     0.073126    -0.027446     0.011707     0.010784    -0.002378     0.041984    -0.039227     0.018704     0.020524
   26 O      3.759776     1.447624    20.112698    -1.239100     0.055759    -0.022722    -0.031283     0.067853    -0.033300    -0.009705     0.000024     0.009612     0.040711    -0.041174     0.010953     0.030221
   27 O      0.100068     3.284812    23.339458    -1.224131     0.050066    -0.016709     0.022889     0.057530    -0.028964    -0.005105    -0.000173     0.004682     0.055492    -0.038534     0.015598     0.022935
   28 O      3.697054     5.197953    26.609231    -1.211828     0.041164    -0.052111     0.115322     0.133076    -0.025332    -0.004486    -0.025905     0.042258     0.147563    -0.063332     0.007465     0.055867
   29 O      1.942634     2.950262    17.138795    -1.256102    -0.073215     0.002773     0.035561     0.081441    -0.003383    -0.029422     0.013869     0.002264    -0.093001    -0.047063     0.012118     0.034945
   30 O     -1.737062     4.779728    20.326668    -1.230875    -0.043495     0.027114     0.056259     0.076105     0.000043    -0.029320     0.016246     0.000002    -0.047786    -0.039579     0.008000     0.031579
   31 O      4.898792     0.602391    23.564034    -1.221069    -0.043583     0.022747     0.026791     0.055988     0.001490    -0.026775     0.011657    -0.007050    -0.044558    -0.036153     0.010826     0.025327
   32 O      1.328479     2.392413    26.714954    -1.175914    -0.022082     0.007140     0.155834     0.157553    -0.024635    -0.005226     0.026566    -0.010194     0.188859    -0.058104    -0.013447     0.071551
   33 O      0.400014     1.774231    15.372661    -1.176229     0.022666    -0.007066    -0.155326     0.157130    -0.024276    -0.005189     0.026782    -0.009702     0.189932    -0.057941    -0.013988     0.071928
   34 O      4.164781     3.563934    18.522865    -1.220794     0.043406    -0.022860    -0.026535     0.055774     0.001388    -0.026702     0.011586    -0.006510    -0.046512    -0.036289     0.010910     0.025379
   35 O      0.523062     5.389948    21.760231    -1.231499     0.043462    -0.026735    -0.056435     0.076082     0.000108    -0.029521     0.016585    -0.000126    -0.047866    -0.039944     0.008102     0.031841
   36 O     -0.214078     1.216268    24.948230    -1.255852     0.073249    -0.002811    -0.035306     0.081363    -0.003192    -0.029384     0.013534     0.002541    -0.092499    -0.046820     0.012125     0.034695
   37 O      2.423543     4.972180    15.477373    -1.211599    -0.040485     0.052041    -0.115255     0.132782    -0.025539    -0.004681    -0.025927     0.041257     0.147904    -0.063253     0.007250     0.056003
   38 O      1.628669     0.881034    18.747272    -1.224172    -0.049975     0.016635    -0.022563     0.057300    -0.029050    -0.005279    -0.000254     0.004753     0.054704    -0.038515     0.015476     0.023039
   39 O      5.303660     2.718245    21.974328    -1.239812    -0.055849     0.022863     0.031093     0.067887    -0.032782    -0.009678     0.000022     0.009745     0.040343    -0.040612     0.010783     0.029829
   40 O      1.642762     4.523828    25.148101    -1.242566    -0.068551     0.009381     0.024522     0.073407    -0.027520     0.011679     0.010632    -0.002802     0.042039    -0.039244     0.018639     0.020605
   41 O      3.864337     1.575271    16.080983    -1.202158     0.006088    -0.045396    -0.054447     0.071150     0.010824     0.009907     0.022338    -0.028518     0.243282    -0.058491    -0.028060     0.086551
   42 O      0.234455     3.327631    19.607150    -1.170722     0.019664    -0.038330    -0.001192     0.043096    -0.000467     0.024429     0.009140    -0.055055     0.234638    -0.070707    -0.012360     0.083067
   43 O      3.929247     5.156737    22.838035    -1.182723     0.013349    -0.040814    -0.005310     0.043269    -0.000260     0.026407     0.012610    -0.061333     0.203486    -0.069759    -0.005091     0.074850
   44 O      3.327459     0.968179    26.208480    -1.180758    -0.010481    -0.041746     0.049102     0.065296    -0.001703     0.005357     0.004508    -0.044221     0.199372    -0.055656    -0.011288     0.066944
   45 O     -0.014943     5.089602    17.465348    -1.174144    -0.000160    -0.038351     0.036150     0.052704     0.015482     0.003749    -0.011842     0.046873    -0.224235    -0.076543     0.011081     0.065461
   46 O      6.631469     0.963424    20.684953    -1.177608     0.024769    -0.047444     0.029439     0.061083     0.033700     0.005675    -0.024839     0.059600    -0.195235    -0.075188    -0.002523     0.077711
   47 O      3.051981     2.757378    23.957420    -1.172617     0.025782    -0.037904    -0.003930     0.046010     0.028908    -0.007727    -0.022038     0.062535    -0.174025    -0.065711    -0.007691     0.073402
   48 O     -0.747881     4.658061    27.152405    -1.037671     0.034047    -0.050883     0.228775     0.236825     0.065598     0.015339    -0.035250     0.066190     0.043060    -0.094037     0.027055     0.066982
 
The sperically averaged electron density of each atom fit to a function of the form exp(a - br) for r >=rmin_cloud_penetration
atom number,atomic symbol, x, y, z, a, b, Rsquared where a and b are in atomic units and Rsquared is the squared correlation coefficient
    1 Zr     1.957931     0.759937    16.391416     0.059548     1.899596     0.999261
    2 Zr     5.650153     2.623619    19.809125     0.167369     1.956164     0.999636
    3 Zr     1.991934     4.419428    23.006845     0.190980     1.959166     0.999769
    4 Zr     1.331231     0.192560    26.252461     0.500658     2.023111     0.999614
    5 Zr     3.806204     3.697237    16.416795     0.186070     1.926928     0.999528
    6 Zr     0.190554     5.473431    19.501848     0.231459     1.971014     0.999796
    7 Zr    -0.487757     1.316219    22.772506     0.295342     1.986989     0.999818
    8 Zr     3.155756     3.107946    25.959620     0.348079     2.001538     0.999370
    9 Zr     5.907516     1.058440    16.127447     0.351041     2.002400     0.999376
   10 Zr     2.216271     2.849752    19.314309     0.257002     1.977526     0.999795
   11 Zr    -1.404463     4.696119    22.585008     0.241918     1.973509     0.999802
   12 Zr     5.257273     0.469059    25.670020     0.194700     1.929592     0.999531
   13 Zr     0.397396     3.974138    15.834186     0.504951     2.024221     0.999611
   14 Zr     4.129010     5.750327    19.080096     0.193609     1.959877     0.999773
   15 Zr     3.413062     1.542238    22.277816     0.186107     1.960921     0.999654
   16 Zr    -0.229507     3.406473    25.695819     0.059220     1.899335     0.999273
   17 O     -0.466635     5.512444    14.934452    -0.877708     1.753292     0.999972
   18 O      6.010886     1.408035    18.129689    -0.589107     1.751101     0.999999
   19 O      2.431616     3.202175    21.401735    -0.624207     1.748661     0.999999
   20 O     -1.199052     5.079960    24.621383    -0.573416     1.752357     0.999997
   21 O     -1.599006     3.197769    15.877619    -0.586968     1.762642     0.999972
   22 O      2.191560     5.013012    19.249538    -0.604155     1.749429     0.999999
   23 O      1.493834     0.837692    22.479076    -0.622153     1.748942     0.999999
   24 O      5.198736     2.591114    26.006295    -0.569889     1.758997     0.999996
   25 O      4.477678     5.646071    16.938841    -0.518610     1.756221     0.999998
   26 O      3.759776     1.447624    20.112698    -0.569450     1.750686     0.999998
   27 O      0.100068     3.284812    23.339458    -0.582396     1.750720     0.999998
   28 O      3.697054     5.197953    26.609231    -0.638431     1.761390     0.999996
   29 O      1.942634     2.950262    17.138795    -0.493181     1.756537     0.999996
   30 O     -1.737062     4.779728    20.326668    -0.586222     1.750395     0.999997
   31 O      4.898792     0.602391    23.564034    -0.573560     1.751358     0.999998
   32 O      1.328479     2.392413    26.714954    -0.635376     1.769576     0.999970
   33 O      0.400014     1.774231    15.372661    -0.633774     1.769625     0.999970
   34 O      4.164781     3.563934    18.522865    -0.571205     1.751375     0.999998
   35 O      0.523062     5.389948    21.760231    -0.582824     1.750366     0.999997
   36 O     -0.214078     1.216268    24.948230    -0.497464     1.756522     0.999996
   37 O      2.423543     4.972180    15.477373    -0.633465     1.762074     0.999995
   38 O      1.628669     0.881034    18.747272    -0.582383     1.750721     0.999998
   39 O      5.303660     2.718245    21.974328    -0.568643     1.750723     0.999998
   40 O      1.642762     4.523828    25.148101    -0.518750     1.756159     0.999998
   41 O      3.864337     1.575271    16.080983    -0.563759     1.760052     0.999995
   42 O      0.234455     3.327631    19.607150    -0.622925     1.748932     0.999999
   43 O      3.929247     5.156737    22.838035    -0.607803     1.749454     0.999999
   44 O      3.327459     0.968179    26.208480    -0.582995     1.763389     0.999970
   45 O     -0.014943     5.089602    17.465348    -0.572549     1.752394     0.999997
   46 O      6.631469     0.963424    20.684953    -0.622335     1.748655     0.999999
   47 O      3.051981     2.757378    23.957420    -0.590925     1.751114     0.999999
   48 O     -0.747881     4.658061    27.152405    -0.877557     1.753265     0.999973
 
 2022/02/28  19:22:56
