   62
jmolscript: load "" {1 1 1} spacegroup "x,y,z" unitcell [{      9.990876     0.000000     0.000000 }, {     -4.995434     8.359351     0.000000 }, {      0.000000     0.000000    18.400000 }]
C     -0.006159     0.015440    10.932470    -0.032094
C      1.219472     0.788295    10.878282     0.172685
C      2.497739     0.119957    10.890666    -0.097950
C      3.776007     0.788295    10.878301     0.172194
C      5.001637     0.015440    10.932470    -0.031464
C      6.267257     0.652966    10.952876     0.008941
C      2.497743     8.278315    10.944946     0.001383
C      8.719098     0.652966    10.952876     0.010631
C      8.706690     2.068003    10.973355    -0.023784
C     -0.074326     2.773875    10.903472     0.110582
C      5.069821     2.773883    10.903490     0.110154
C      6.279676     2.068003    10.973355    -0.022815
C      7.493188     2.780788    11.002390    -0.011098
C     -2.497697     4.185577    11.001838    -0.008908
C     -1.283885     4.898028    10.972049    -0.024436
C     -0.074140     4.192248    10.902497     0.108350
C      5.069632     4.192248    10.902515     0.109020
C      6.279363     4.898036    10.972030    -0.023318
C     -3.723656     6.313283    10.951054     0.008837
C     -2.497686     7.047033    10.943510     0.001598
C     -1.271731     6.313274    10.951036     0.010463
C     -0.006056     6.950742    10.931569    -0.033124
C      1.219799     6.177711    10.877786     0.172528
C      2.497742     6.846158    10.891236    -0.098829
C      3.775685     6.177711    10.877804     0.173054
C      5.001536     6.950750    10.931606    -0.032669
C     -0.006159     0.015440     7.467530    -0.032094
C      1.219472     0.788295     7.521718     0.172685
C      2.497739     0.119957     7.509334    -0.097950
C      3.776007     0.788295     7.521699     0.172194
C      5.001637     0.015440     7.467530    -0.031464
C      6.267257     0.652966     7.447124     0.008941
C      2.497743     8.278315     7.455054     0.001383
C      8.719098     0.652966     7.447124     0.010631
C      8.706690     2.068003     7.426645    -0.023783
C     -0.074326     2.773875     7.496528     0.110582
C      5.069821     2.773883     7.496510     0.110154
C      6.279676     2.068003     7.426645    -0.022815
C      7.493188     2.780788     7.397610    -0.011098
C     -2.497697     4.185577     7.398162    -0.008908
C     -1.283885     4.898028     7.427951    -0.024436
C     -0.074140     4.192248     7.497503     0.108350
C      5.069632     4.192248     7.497485     0.109020
C      6.279363     4.898036     7.427970    -0.023318
C     -3.723656     6.313283     7.448946     0.008837
C     -2.497686     7.047033     7.456490     0.001598
C     -1.271731     6.313274     7.448964     0.010463
C     -0.006056     6.950742     7.468431    -0.033124
C      1.219799     6.177711     7.522214     0.172528
C      2.497742     6.846158     7.508764    -0.098829
C      3.775685     6.177711     7.522196     0.173054
C      5.001536     6.950750     7.468394    -0.032669
N      1.150006     2.163542    10.806835    -0.260881
N      3.845489     2.163551    10.806835    -0.260109
N      1.150207     4.802472    10.805952    -0.259152
N      3.845291     4.802481    10.805952    -0.258575
N      1.150006     2.163542     7.593165    -0.260880
N      3.845489     2.163551     7.593165    -0.260108
N      1.150207     4.802472     7.594048    -0.259151
N      3.845291     4.802481     7.594048    -0.258575
Fe     2.497741     3.482857    10.550008     0.308787
Fe     2.497741     3.482857     7.849992     0.308780
 
 Chargemol version 3.5 September 26, 2017.
See ddec.sourceforge.net for latest version.
 
Computational parameters:
Number of radial integration shells =    100
Cutoff radius (pm) =    500
Error in the integrated total number of electrons before renormalization (e) =    2.5038E-04
Charge convergence tolerance =    1.0000E-05
Minimum radius for electron cloud penetration fitting (pm) =    200
Minimum decay exponent for electron density of buried atom tails =   1.7500
Maximum decay exponent for electron density of buried atom tails =  2.5000
Number of iterations to convergence =      7
 
The following XYZ coordinates are in angstroms. The atomic dipoles and quadrupoles are in atomic units.
atom number, atomic symbol, x, y, z, net_charge, dipole_x, dipole_y, dipole_z, dipole_mag, Qxy, Qxz, Qyz,Q(x^2-y^2), Q(3z^2 - R^2), three eigenvalues of traceless quadrupole moment tensor
    1 C     -0.006159     0.015440    10.932470    -0.032094    -0.004265    -0.009095     0.003033     0.010494    -0.010097     0.003069    -0.000334    -0.025466     0.019297    -0.019764     0.006465     0.013299
    2 C      1.219472     0.788295    10.878282     0.172685     0.005166     0.054016     0.000592     0.054266    -0.002049    -0.001944     0.003146    -0.024773    -0.005333    -0.011955    -0.002175     0.014131
    3 C      2.497739     0.119957    10.890666    -0.097950     0.000367    -0.000397    -0.001041     0.001173     0.000000    -0.000147    -0.002619    -0.047827    -0.049597    -0.016693    -0.015627     0.032320
    4 C      3.776007     0.788295    10.878301     0.172194    -0.005045     0.053334     0.000354     0.053574     0.001339     0.001611     0.003404    -0.025111    -0.004858    -0.012022    -0.002185     0.014207
    5 C      5.001637     0.015440    10.932470    -0.031464     0.005213    -0.009274     0.003212     0.011113     0.009928    -0.003801    -0.000012    -0.025292     0.018632    -0.019681     0.006471     0.013210
    6 C      6.267257     0.652966    10.952876     0.008941     0.001177     0.000371     0.002129     0.002461     0.006231     0.001262    -0.001159    -0.016385     0.016288    -0.013140     0.005346     0.007794
    7 C      2.497743     8.278315    10.944946     0.001383    -0.000674    -0.008865     0.001152     0.008965    -0.000499     0.000054     0.000512     0.001720    -0.020384    -0.006823     0.002431     0.004392
    8 C      8.719098     0.652966    10.952876     0.010631    -0.001500    -0.000639     0.001873     0.002483    -0.006399    -0.001385    -0.000989    -0.016314     0.014243    -0.012893     0.004826     0.008067
    9 C      8.706690     2.068003    10.973355    -0.023784    -0.012482    -0.014165     0.002522     0.019047    -0.006288     0.003281     0.000773     0.012664     0.049263    -0.017250     0.000255     0.016995
   10 C     -0.074326     2.773875    10.903472     0.110582     0.055607    -0.042013    -0.001754     0.069716    -0.013003     0.005681     0.000202     0.010563     0.045873    -0.021985     0.004502     0.017483
   11 C      5.069821     2.773883    10.903490     0.110154    -0.055311    -0.042361    -0.001639     0.069688     0.012646    -0.005351     0.000140     0.011889     0.043825    -0.021529     0.004737     0.016792
   12 C      6.279676     2.068003    10.973355    -0.022815     0.014219    -0.013739     0.002401     0.019918     0.007556    -0.003309     0.000847     0.013252     0.048340    -0.018240     0.001514     0.016726
   13 C      7.493188     2.780788    11.002390    -0.011098     0.001049    -0.007793     0.000387     0.007873    -0.000135    -0.000066    -0.002162    -0.003560     0.001602    -0.002069    -0.001172     0.003241
   14 C     -2.497697     4.185577    11.001838    -0.008908     0.001171     0.007815     0.000464     0.007916     0.000592    -0.000028     0.001914    -0.002885    -0.000752    -0.001758    -0.001077     0.002835
   15 C     -1.283885     4.898028    10.972049    -0.024436    -0.011746     0.014653     0.002319     0.018922     0.006029     0.003017    -0.000687     0.011428     0.050140    -0.016763    -0.000411     0.017174
   16 C     -0.074140     4.192248    10.902497     0.108350     0.054937     0.042709    -0.001428     0.069600     0.012687     0.005832     0.000374     0.011564     0.047750    -0.022118     0.003873     0.018245
   17 C      5.069632     4.192248    10.902515     0.109020    -0.053756     0.042261    -0.001574     0.068397    -0.012093    -0.005796    -0.000027     0.011296     0.044559    -0.021055     0.003839     0.017216
   18 C      6.279363     4.898036    10.972030    -0.023318     0.013740     0.014692     0.002779     0.020306    -0.006927    -0.003464    -0.000692     0.011470     0.048521    -0.017214     0.000403     0.016811
   19 C     -3.723656     6.313283    10.951054     0.008837     0.001138    -0.000115     0.001456     0.001852    -0.006406     0.001103     0.000982    -0.016493     0.016618    -0.013311     0.005489     0.007821
   20 C     -2.497686     7.047033    10.943510     0.001598    -0.000514     0.008856     0.001599     0.009014     0.000367    -0.000371    -0.000612     0.001908    -0.020978    -0.007042     0.002504     0.004539
   21 C     -1.271731     6.313274    10.951036     0.010463    -0.000949     0.000364     0.001934     0.002185     0.006876    -0.001535     0.001027    -0.016369     0.015082    -0.013378     0.005139     0.008239
   22 C     -0.006056     6.950742    10.931569    -0.033124    -0.004530     0.008767     0.002713     0.010235     0.010014     0.003361     0.000162    -0.024217     0.019227    -0.019294     0.006511     0.012783
   23 C      1.219799     6.177711    10.877786     0.172528     0.005184    -0.052744     0.000211     0.052998     0.001807    -0.002407    -0.003421    -0.024562    -0.004428    -0.012131    -0.001862     0.013993
   24 C      2.497742     6.846158    10.891236    -0.098829    -0.000290     0.000833    -0.000141     0.000893     0.000399    -0.000079     0.002168    -0.048491    -0.048923    -0.016432    -0.016067     0.032499
   25 C      3.775685     6.177711    10.877804     0.173054    -0.004869    -0.052607     0.000142     0.052832    -0.001366     0.002357    -0.003631    -0.023590    -0.006300    -0.011354    -0.002469     0.013822
   26 C      5.001536     6.950750    10.931606    -0.032669     0.005237     0.009213     0.003162     0.011059    -0.010027    -0.003323    -0.000043    -0.023773     0.018902    -0.019089     0.006486     0.012603
   27 C     -0.006159     0.015440     7.467530    -0.032094    -0.004265    -0.009095    -0.003033     0.010494    -0.010097    -0.003069     0.000334    -0.025466     0.019297    -0.019764     0.006465     0.013299
   28 C      1.219472     0.788295     7.521718     0.172685     0.005166     0.054016    -0.000592     0.054266    -0.002049     0.001944    -0.003146    -0.024773    -0.005333    -0.011955    -0.002176     0.014131
   29 C      2.497739     0.119957     7.509334    -0.097950     0.000367    -0.000397     0.001041     0.001173     0.000000     0.000147     0.002619    -0.047827    -0.049597    -0.016693    -0.015627     0.032320
   30 C      3.776007     0.788295     7.521699     0.172194    -0.005045     0.053334    -0.000354     0.053574     0.001339    -0.001611    -0.003404    -0.025111    -0.004858    -0.012022    -0.002185     0.014207
   31 C      5.001637     0.015440     7.467530    -0.031464     0.005213    -0.009274    -0.003212     0.011113     0.009928     0.003801     0.000012    -0.025292     0.018631    -0.019681     0.006471     0.013210
   32 C      6.267257     0.652966     7.447124     0.008941     0.001177     0.000371    -0.002129     0.002461     0.006231    -0.001262     0.001159    -0.016385     0.016288    -0.013140     0.005346     0.007794
   33 C      2.497743     8.278315     7.455054     0.001383    -0.000674    -0.008865    -0.001152     0.008965    -0.000499    -0.000054    -0.000512     0.001720    -0.020384    -0.006823     0.002431     0.004392
   34 C      8.719098     0.652966     7.447124     0.010631    -0.001500    -0.000639    -0.001873     0.002483    -0.006400     0.001385     0.000989    -0.016314     0.014243    -0.012893     0.004826     0.008067
   35 C      8.706690     2.068003     7.426645    -0.023783    -0.012482    -0.014165    -0.002522     0.019047    -0.006288    -0.003281    -0.000773     0.012664     0.049263    -0.017250     0.000255     0.016995
   36 C     -0.074326     2.773875     7.496528     0.110582     0.055607    -0.042013     0.001754     0.069716    -0.013003    -0.005681    -0.000202     0.010564     0.045873    -0.021985     0.004502     0.017483
   37 C      5.069821     2.773883     7.496510     0.110154    -0.055311    -0.042361     0.001639     0.069688     0.012646     0.005351    -0.000140     0.011889     0.043825    -0.021529     0.004737     0.016792
   38 C      6.279676     2.068003     7.426645    -0.022815     0.014219    -0.013739    -0.002401     0.019918     0.007556     0.003309    -0.000847     0.013252     0.048340    -0.018240     0.001514     0.016726
   39 C      7.493188     2.780788     7.397610    -0.011098     0.001049    -0.007793    -0.000387     0.007873    -0.000135     0.000066     0.002162    -0.003560     0.001602    -0.002069    -0.001172     0.003241
   40 C     -2.497697     4.185577     7.398162    -0.008908     0.001171     0.007815    -0.000464     0.007916     0.000592     0.000028    -0.001914    -0.002885    -0.000752    -0.001758    -0.001077     0.002835
   41 C     -1.283885     4.898028     7.427951    -0.024436    -0.011746     0.014653    -0.002319     0.018922     0.006029    -0.003017     0.000687     0.011428     0.050140    -0.016763    -0.000411     0.017174
   42 C     -0.074140     4.192248     7.497503     0.108350     0.054937     0.042708     0.001428     0.069600     0.012687    -0.005832    -0.000374     0.011564     0.047750    -0.022118     0.003873     0.018245
   43 C      5.069632     4.192248     7.497485     0.109020    -0.053756     0.042261     0.001574     0.068397    -0.012093     0.005796     0.000027     0.011296     0.044559    -0.021054     0.003839     0.017216
   44 C      6.279363     4.898036     7.427970    -0.023318     0.013740     0.014692    -0.002779     0.020306    -0.006927     0.003464     0.000692     0.011470     0.048521    -0.017214     0.000403     0.016811
   45 C     -3.723656     6.313283     7.448946     0.008837     0.001138    -0.000115    -0.001456     0.001852    -0.006406    -0.001103    -0.000982    -0.016493     0.016618    -0.013311     0.005489     0.007822
   46 C     -2.497686     7.047033     7.456490     0.001598    -0.000514     0.008856    -0.001599     0.009014     0.000367     0.000371     0.000612     0.001908    -0.020978    -0.007042     0.002504     0.004539
   47 C     -1.271731     6.313274     7.448964     0.010463    -0.000949     0.000364    -0.001934     0.002185     0.006876     0.001535    -0.001027    -0.016369     0.015082    -0.013378     0.005139     0.008239
   48 C     -0.006056     6.950742     7.468431    -0.033124    -0.004530     0.008767    -0.002713     0.010235     0.010014    -0.003361    -0.000162    -0.024217     0.019227    -0.019294     0.006511     0.012783
   49 C      1.219799     6.177711     7.522214     0.172528     0.005184    -0.052744    -0.000211     0.052998     0.001807     0.002407     0.003421    -0.024562    -0.004428    -0.012131    -0.001862     0.013993
   50 C      2.497742     6.846158     7.508764    -0.098829    -0.000290     0.000833     0.000141     0.000893     0.000399     0.000079    -0.002168    -0.048491    -0.048924    -0.016432    -0.016067     0.032499
   51 C      3.775685     6.177711     7.522196     0.173054    -0.004869    -0.052607    -0.000142     0.052832    -0.001366    -0.002357     0.003631    -0.023590    -0.006300    -0.011354    -0.002469     0.013822
   52 C      5.001536     6.950750     7.468394    -0.032669     0.005237     0.009213    -0.003162     0.011059    -0.010027     0.003323     0.000043    -0.023773     0.018902    -0.019089     0.006486     0.012603
   53 N      1.150006     2.163542    10.806835    -0.260881    -0.062451    -0.046762     0.014625     0.079377    -0.036299     0.002431     0.007835    -0.002833    -0.060298    -0.031069    -0.015545     0.046614
   54 N      3.845489     2.163551    10.806835    -0.260109     0.063210    -0.046903     0.014919     0.080113     0.036178    -0.002346     0.007770    -0.002888    -0.061986    -0.030876    -0.015898     0.046775
   55 N      1.150207     4.802472    10.805952    -0.259152    -0.063649     0.046970     0.014506     0.080422     0.036647     0.002561    -0.007678    -0.003428    -0.062659    -0.031263    -0.016079     0.047342
   56 N      3.845291     4.802481    10.805952    -0.258575     0.063813     0.046595     0.014548     0.080341    -0.036429    -0.002328    -0.007316    -0.002618    -0.063569    -0.030728    -0.016516     0.047244
   57 N      1.150006     2.163542     7.593165    -0.260880    -0.062451    -0.046761    -0.014625     0.079377    -0.036299    -0.002431    -0.007835    -0.002833    -0.060298    -0.031069    -0.015545     0.046614
   58 N      3.845489     2.163551     7.593165    -0.260108     0.063210    -0.046903    -0.014919     0.080112     0.036178     0.002346    -0.007770    -0.002888    -0.061987    -0.030876    -0.015898     0.046775
   59 N      1.150207     4.802472     7.594048    -0.259151    -0.063649     0.046970    -0.014506     0.080422     0.036647    -0.002561     0.007678    -0.003428    -0.062659    -0.031263    -0.016079     0.047342
   60 N      3.845291     4.802481     7.594048    -0.258575     0.063812     0.046594    -0.014548     0.080341    -0.036429     0.002328     0.007316    -0.002618    -0.063569    -0.030728    -0.016516     0.047244
   61 Fe     2.497741     3.482857    10.550008     0.308787    -0.000110    -0.000027     0.077451     0.077451    -0.000710     0.000031     0.000279    -0.006056     0.109504    -0.021361    -0.015142     0.036503
   62 Fe     2.497741     3.482857     7.849992     0.308780    -0.000110    -0.000027    -0.077451     0.077451    -0.000710    -0.000031    -0.000279    -0.006056     0.109506    -0.021361    -0.015142     0.036503
 
The sperically averaged electron density of each atom fit to a function of the form exp(a - br) for r >=rmin_cloud_penetration
atom number,atomic symbol, x, y, z, a, b, Rsquared where a and b are in atomic units and Rsquared is the squared correlation coefficient
    1 C     -0.006159     0.015440    10.932470    -0.586154     1.848348     0.999686
    2 C      1.219472     0.788295    10.878282    -0.681782     1.840973     0.999835
    3 C      2.497739     0.119957    10.890666    -0.575980     1.835751     0.999736
    4 C      3.776007     0.788295    10.878301    -0.681302     1.841074     0.999835
    5 C      5.001637     0.015440    10.932470    -0.587277     1.848319     0.999686
    6 C      6.267257     0.652966    10.952876    -0.528562     1.864701     0.999769
    7 C      2.497743     8.278315    10.944946    -0.432090     1.879420     0.999583
    8 C      8.719098     0.652966    10.952876    -0.520898     1.866992     0.999773
    9 C      8.706690     2.068003    10.973355    -0.632081     1.845500     0.999754
   10 C     -0.074326     2.773875    10.903472    -0.723676     1.834884     0.999680
   11 C      5.069821     2.773883    10.903490    -0.720760     1.835174     0.999680
   12 C      6.279676     2.068003    10.973355    -0.634184     1.845393     0.999753
   13 C      7.493188     2.780788    11.002390    -0.478055     1.873093     0.999430
   14 C     -2.497697     4.185577    11.001838    -0.464135     1.875721     0.999454
   15 C     -1.283885     4.898028    10.972049    -0.633187     1.845555     0.999754
   16 C     -0.074140     4.192248    10.902497    -0.721780     1.835044     0.999677
   17 C      5.069632     4.192248    10.902515    -0.720840     1.835033     0.999679
   18 C      6.279363     4.898036    10.972030    -0.634125     1.845653     0.999752
   19 C     -3.723656     6.313283    10.951054    -0.526601     1.864931     0.999770
   20 C     -2.497686     7.047033    10.943510    -0.432597     1.878861     0.999584
   21 C     -1.271731     6.313274    10.951036    -0.519578     1.867217     0.999776
   22 C     -0.006056     6.950742    10.931569    -0.586055     1.848145     0.999686
   23 C      1.219799     6.177711    10.877786    -0.681245     1.840906     0.999841
   24 C      2.497742     6.846158    10.891236    -0.576111     1.835619     0.999738
   25 C      3.775685     6.177711    10.877804    -0.680505     1.841021     0.999839
   26 C      5.001536     6.950750    10.931606    -0.587639     1.848173     0.999685
   27 C     -0.006159     0.015440     7.467530    -0.586154     1.848348     0.999686
   28 C      1.219472     0.788295     7.521718    -0.681783     1.840973     0.999835
   29 C      2.497739     0.119957     7.509334    -0.575980     1.835751     0.999736
   30 C      3.776007     0.788295     7.521699    -0.681302     1.841074     0.999835
   31 C      5.001637     0.015440     7.467530    -0.587277     1.848319     0.999686
   32 C      6.267257     0.652966     7.447124    -0.528561     1.864701     0.999769
   33 C      2.497743     8.278315     7.455054    -0.432090     1.879420     0.999583
   34 C      8.719098     0.652966     7.447124    -0.520897     1.866992     0.999773
   35 C      8.706690     2.068003     7.426645    -0.632080     1.845500     0.999754
   36 C     -0.074326     2.773875     7.496528    -0.723676     1.834884     0.999680
   37 C      5.069821     2.773883     7.496510    -0.720760     1.835174     0.999680
   38 C      6.279676     2.068003     7.426645    -0.634183     1.845393     0.999753
   39 C      7.493188     2.780788     7.397610    -0.478055     1.873093     0.999430
   40 C     -2.497697     4.185577     7.398162    -0.464135     1.875721     0.999454
   41 C     -1.283885     4.898028     7.427951    -0.633187     1.845555     0.999754
   42 C     -0.074140     4.192248     7.497503    -0.721780     1.835044     0.999677
   43 C      5.069632     4.192248     7.497485    -0.720840     1.835033     0.999679
   44 C      6.279363     4.898036     7.427970    -0.634124     1.845653     0.999752
   45 C     -3.723656     6.313283     7.448946    -0.526600     1.864931     0.999770
   46 C     -2.497686     7.047033     7.456490    -0.432597     1.878861     0.999584
   47 C     -1.271731     6.313274     7.448964    -0.519577     1.867218     0.999776
   48 C     -0.006056     6.950742     7.468431    -0.586055     1.848145     0.999686
   49 C      1.219799     6.177711     7.522214    -0.681246     1.840906     0.999841
   50 C      2.497742     6.846158     7.508764    -0.576111     1.835619     0.999738
   51 C      3.775685     6.177711     7.522196    -0.680505     1.841021     0.999839
   52 C      5.001536     6.950750     7.468394    -0.587639     1.848173     0.999685
   53 N      1.150006     2.163542    10.806835    -0.629118     1.822497     0.999809
   54 N      3.845489     2.163551    10.806835    -0.626777     1.823383     0.999811
   55 N      1.150207     4.802472    10.805952    -0.626974     1.823150     0.999810
   56 N      3.845291     4.802481    10.805952    -0.627517     1.823451     0.999809
   57 N      1.150006     2.163542     7.593165    -0.629119     1.822497     0.999809
   58 N      3.845489     2.163551     7.593165    -0.626778     1.823383     0.999811
   59 N      1.150207     4.802472     7.594048    -0.626975     1.823150     0.999810
   60 N      3.845291     4.802481     7.594048    -0.627518     1.823451     0.999809
   61 Fe     2.497741     3.482857    10.550008     0.186762     1.803302     0.999985
   62 Fe     2.497741     3.482857     7.849992     0.186765     1.803302     0.999985
 
 2024/01/17  23:09:01
