   90
jmolscript: load "" {1 1 1} spacegroup "x,y,z" unitcell [{      6.635706     0.000000    -0.703513 }, {      3.279336     9.984392    -0.715058 }, {      0.000000     0.000000     0.000000 }]
Co     6.768831     8.516367     3.264834     1.211061
Co     1.491688     4.589026    16.759503     1.187791
Co     3.804375     7.532745     6.947667     1.201403
Co     7.457224     6.536192     9.791086     1.203373
Co     4.475165     5.551162    13.268140     1.206290
Co     3.989817     2.032613     8.706482     1.195358
Co     6.964170     2.976667     5.132857     1.208157
Co     1.017424     1.042041    12.300788     1.199023
Co     4.670139     0.118944    15.124177     1.240792
Co     3.393134     3.937605     2.535880     1.351629
Sb     3.706859     4.517708     6.040497     1.976729
Sb     6.708050     5.355278     2.428703     1.926445
Sb     7.361387     3.534734     8.871751     1.993669
Sb     4.384709     2.556753    12.409401     2.001563
Sb     1.410739     1.551175    16.050410     1.876882
Sb     3.586401     1.533333     4.940385     1.947639
Sb     8.227040     7.622245    17.016602     1.294397
Sb     0.621435     0.528604     8.577338     1.995654
Sb     7.557990     9.543811    10.705874     1.994289
Sb     4.580385     8.549855    14.276110     1.966056
Sb     7.170163     9.034836     7.041301     1.983593
Sb     0.222210     0.155587     4.796593     1.894800
Sb     4.190811     8.063724    10.603540     1.993316
Sb     7.841957     7.081909    13.375899     1.982267
Sb     4.842784     5.984405    16.739504     1.842159
Sb     4.091609     5.021171     9.691453     1.992964
Sb     7.073403     6.004124     6.140482     1.979028
Sb     7.750906     4.008813    12.522650     1.985326
Sb     4.780711     2.967920    16.124999     1.919477
Sb     3.424474     7.156113     3.329442     1.798606
O      3.798371     0.868722     6.889832    -0.867066
O      6.788960     1.953406     3.438366    -0.786909
O      4.102780     9.889091     9.799481    -0.872769
O      7.761643     8.922182    12.630444    -0.865143
O      4.786515     7.863218    16.236513    -0.784441
O      6.997602     7.863248     5.376450    -0.841053
O      3.337709     8.923490     2.441589    -0.706473
O      4.013145     6.905625     8.935315    -0.846282
O      7.667235     5.908024    11.749590    -0.840969
O      4.670295     4.851117    15.170960    -0.835226
O      6.096045     4.987923     9.432287    -0.875696
O      2.438692     5.983407     6.540934    -0.867788
O      3.108729     4.015513    12.947948    -0.871678
O      6.795560     3.082461    15.846980    -0.879147
O      5.424572     7.023531     2.742323    -0.852009
O      7.249421     7.139789     7.811859    -0.842781
O      3.597520     8.219980     4.962825    -0.814894
O      4.269789     6.173260    11.349844    -0.846648
O      7.929328     5.218652    14.179333    -0.858440
O      4.949119     4.264813    17.696880    -0.719427
O      3.909734     3.989963     7.964922    -0.875137
O      6.885315     4.963231     4.361832    -0.862881
O      7.568409     2.971105    10.804747    -0.875962
O      4.584367     2.009838    14.319145    -0.875720
O      1.584995     0.945891    17.878219    -0.535540
O      9.177229     9.057860     6.882573    -0.871421
O      2.264912     0.044081     4.597865    -0.865690
O      6.203112     8.085251    10.431337    -0.879719
O      3.226487     7.081430    13.981863    -0.886964
O      6.888860     6.097408    16.982076    -0.825375
O      2.078685     4.988152     9.858766    -0.875204
O      5.053208     5.983756     6.263700    -0.869630
O      5.743808     4.015513    12.669686    -0.869869
O      2.749490     3.069162    16.299913    -0.872501
O      7.988619     7.044208     2.482667    -0.857338
O      4.074018     0.096270     9.480947    -0.878617
O      0.417906     1.051247     6.646872    -0.879516
O      4.375513     9.084349    12.325540    -0.875551
O      8.026623     8.107796    15.118754    -0.818169
O      3.352785     2.228876     3.089534    -0.758876
O      6.043331     2.039003     8.505022    -0.843588
O      2.385453     3.047276     5.666895    -0.849391
O      3.061315     1.054791    12.035240    -0.843546
O      0.066728     0.042344    15.572766    -0.833677
O      5.064486     4.454576     1.797778    -0.808261
O      1.939527     2.039152     8.942536    -0.842698
O      4.916897     3.047726     5.384825    -0.853323
O      5.598968     1.054162    11.768913    -0.845159
O      2.627825     0.045719    15.297761    -0.836372
O      1.477190     4.451122     2.134460    -0.822796
O      4.179202     3.189624    10.498001    -0.874682
O      7.154390     4.168444     6.920666    -0.862750
O      1.208206     2.198294    14.075257    -0.857522
O      4.857999     1.163042    16.804313    -0.788689
O      3.485294     5.259558     4.035774    -0.871381
O      5.173425     9.057321     7.310143    -0.873861
O      4.815027     0.054305     4.315197    -0.865628
O      8.820126     8.084133    10.149620    -0.878849
O      5.845208     7.080801    13.706783    -0.887940
O      2.892927     6.096610    17.407555    -0.825102
 
 Chargemol version 3.5 September 26, 2017.
See ddec.sourceforge.net for latest version.
 
Computational parameters:
Number of radial integration shells =    100
Cutoff radius (pm) =    500
Error in the integrated total number of electrons before renormalization (e) =    1.7752E-03
Charge convergence tolerance =    1.0000E-05
Minimum radius for electron cloud penetration fitting (pm) =    200
Minimum decay exponent for electron density of buried atom tails =   1.7500
Maximum decay exponent for electron density of buried atom tails =  2.5000
Number of iterations to convergence =      7
 
The following XYZ coordinates are in angstroms. The atomic dipoles and quadrupoles are in atomic units.
atom number, atomic symbol, x, y, z, net_charge, dipole_x, dipole_y, dipole_z, dipole_mag, Qxy, Qxz, Qyz,Q(x^2-y^2), Q(3z^2 - R^2), three eigenvalues of traceless quadrupole moment tensor
    1 Co     6.768831     8.516367     3.264834     1.211061    -0.003055     0.011149    -0.032977     0.034944    -0.006135     0.015852    -0.057545     0.051389     0.359249    -0.100654    -0.035795     0.136449
    2 Co     1.491688     4.589026    16.759503     1.187791     0.001761    -0.023063     0.032513     0.039901    -0.005156     0.015637    -0.064647     0.064770     0.345807    -0.108685    -0.026928     0.135613
    3 Co     3.804375     7.532745     6.947667     1.201403     0.000334     0.004743    -0.002035     0.005172    -0.004488     0.006089    -0.053332     0.092514     0.191978    -0.096077     0.013551     0.082526
    4 Co     7.457224     6.536192     9.791086     1.203373     0.000146    -0.001289    -0.001623     0.002078    -0.004025     0.005043    -0.051485     0.095773     0.197064    -0.097069     0.014553     0.082517
    5 Co     4.475165     5.551162    13.268140     1.206290    -0.000559    -0.006124     0.002535     0.006652    -0.005695     0.003738    -0.061619     0.092165     0.163522    -0.098329     0.018444     0.079885
    6 Co     3.989817     2.032613     8.706482     1.195358     0.000142     0.003245     0.002668     0.004203    -0.004680    -0.008285    -0.046922     0.169465     0.015869    -0.107285     0.024313     0.082972
    7 Co     6.964170     2.976667     5.132857     1.208157     0.000667     0.019267     0.010842     0.022118    -0.002494    -0.009197    -0.025768     0.202858     0.021938    -0.110804     0.012106     0.098698
    8 Co     1.017424     1.042041    12.300788     1.199023    -0.000666    -0.001628    -0.003278     0.003720    -0.004440    -0.007538    -0.047299     0.175419     0.032119    -0.111630     0.028487     0.083143
    9 Co     4.670139     0.118944    15.124177     1.240792    -0.001508    -0.013325    -0.011918     0.017940    -0.004873    -0.019533    -0.046517     0.174086    -0.051683    -0.104436     0.005442     0.098994
   10 Co     3.393134     3.937605     2.535880     1.351629    -0.016497    -0.045604    -0.065929     0.081845     0.057104    -0.074877     0.096542     0.069301    -0.003252    -0.159367     0.061215     0.098152
   11 Sb     3.706859     4.517708     6.040497     1.976729    -0.000343     0.023169     0.008867     0.024810    -0.005326     0.000475    -0.063879     0.081150     0.033116    -0.087648     0.034592     0.053056
   12 Sb     6.708050     5.355278     2.428703     1.926445    -0.017981    -0.021419    -0.042129     0.050566    -0.002365     0.048623    -0.081341    -0.271590     0.352868    -0.202381     0.017021     0.185359
   13 Sb     7.361387     3.534734     8.871751     1.993669     0.000447     0.012521     0.005511     0.013687    -0.000852    -0.003502    -0.026948     0.093074     0.047758    -0.063662     0.024397     0.039265
   14 Sb     4.384709     2.556753    12.409401     2.001563    -0.000476     0.021088    -0.000242     0.021095    -0.005739    -0.002272    -0.008453     0.093833     0.036424    -0.054442     0.013138     0.041304
   15 Sb     1.410739     1.551175    16.050410     1.876882    -0.009095     0.042495    -0.078054     0.089336     0.004849    -0.013964     0.012624     0.187758    -0.155144    -0.075519    -0.045424     0.120944
   16 Sb     3.586401     1.533333     4.940385     1.947639    -0.000033    -0.041349     0.011239     0.042849     0.002961     0.000578     0.035117     0.194239     0.117532    -0.124292     0.046678     0.077614
   17 Sb     8.227040     7.622245    17.016602     1.294397    -0.048040    -0.352098    -0.450241     0.573583    -0.044641    -0.052269    -0.443614     0.224857    -0.756278    -0.588010     0.243956     0.344054
   18 Sb     0.621435     0.528604     8.577338     1.995654     0.000193    -0.016716    -0.001785     0.016812    -0.004848    -0.003783    -0.010932     0.095214     0.022779    -0.053668     0.009318     0.044350
   19 Sb     7.557990     9.543811    10.705874     1.994289    -0.000067    -0.014172    -0.007120     0.015860     0.000673    -0.001034    -0.023640     0.106330     0.054145    -0.068637     0.024425     0.044212
   20 Sb     4.580385     8.549855    14.276110     1.966056    -0.000457    -0.000140    -0.012597     0.012606     0.000005    -0.001115    -0.002565     0.098880     0.119038    -0.069340     0.029479     0.039861
   21 Sb     7.170163     9.034836     7.041301     1.983593    -0.000130     0.007734     0.004945     0.009180    -0.005085     0.003343    -0.028916     0.078325     0.144505    -0.070506     0.014790     0.055716
   22 Sb     0.222210     0.155587     4.796593     1.894800     0.000323    -0.008315    -0.006391     0.010493    -0.005773     0.014231    -0.082688     0.200533     0.464628    -0.197154     0.021349     0.175805
   23 Sb     4.190811     8.063724    10.603540     1.993316     0.002430     0.007085     0.005861     0.009511    -0.002107     0.001399    -0.028113     0.074112     0.107412    -0.062993     0.019038     0.043956
   24 Sb     7.841957     7.081909    13.375899     1.982267     0.000524     0.006779     0.004276     0.008032    -0.001089     0.001007    -0.014416     0.056983     0.067321    -0.042904     0.017109     0.025795
   25 Sb     4.842784     5.984405    16.739504     1.842159     0.006412     0.038089     0.069079     0.079144     0.009303     0.023918     0.086660     0.109451     0.563597    -0.169753    -0.041699     0.211452
   26 Sb     4.091609     5.021171     9.691453     1.992964    -0.000543    -0.009946    -0.005793     0.011523    -0.002972     0.002108    -0.021284     0.071221     0.099900    -0.057339     0.018657     0.038682
   27 Sb     7.073403     6.004124     6.140482     1.979028    -0.001750    -0.015595    -0.017550     0.023543     0.002452     0.001488    -0.009783     0.077470     0.115164    -0.058998     0.019549     0.039448
   28 Sb     7.750906     4.008813    12.522650     1.985326    -0.001524     0.005884    -0.006703     0.009048    -0.000834     0.002608    -0.019508     0.068915     0.133826    -0.060388     0.011951     0.048437
   29 Sb     4.780711     2.967920    16.124999     1.919477     0.000900     0.003287     0.006722     0.007537    -0.007884     0.018949    -0.070271     0.171855     0.491895    -0.182260     0.001732     0.180528
   30 Sb     3.424474     7.156113     3.329442     1.798606     0.000470    -0.023514     0.018766     0.030088    -0.008423     0.016453    -0.047344     0.166338     0.483532    -0.170725     0.000962     0.169763
   31 O      3.798371     0.868722     6.889832    -0.867066    -0.001177     0.033445    -0.015096     0.036713    -0.002293    -0.000568    -0.014781    -0.026802    -0.046887    -0.020936    -0.005598     0.026534
   32 O      6.788960     1.953406     3.438366    -0.786909    -0.013126     0.086885    -0.149490     0.173403    -0.000587    -0.001148    -0.022848    -0.057479    -0.040304    -0.023538    -0.020935     0.044472
   33 O      4.102780     9.889091     9.799481    -0.872769    -0.001368     0.038290    -0.002742     0.038413    -0.000265    -0.001250    -0.014640    -0.021739    -0.047874    -0.021383    -0.002805     0.024188
   34 O      7.761643     8.922182    12.630444    -0.865143    -0.000167     0.043184     0.003631     0.043337    -0.003005    -0.001336    -0.015759    -0.019041    -0.052335    -0.023643    -0.000780     0.024423
   35 O      4.786515     7.863218    16.236513    -0.784441     0.004904     0.105072     0.050226     0.116562    -0.004746     0.004335    -0.022185    -0.103042    -0.019009    -0.048862    -0.013350     0.062212
   36 O      6.997602     7.863248     5.376450    -0.841053    -0.005892     0.033098    -0.066997     0.074959     0.001776    -0.003664     0.016147    -0.057013    -0.105569    -0.038834    -0.010376     0.049210
   37 O      3.337709     8.923490     2.441589    -0.706473    -0.015332     0.071505    -0.150553     0.167375    -0.000395     0.006223    -0.006375    -0.156727    -0.040010    -0.072352    -0.013095     0.085447
   38 O      4.013145     6.905625     8.935315    -0.846282    -0.006519     0.021955    -0.062999     0.067033     0.000919    -0.003264     0.021430    -0.042264    -0.102683    -0.040406    -0.003702     0.044108
   39 O      7.667235     5.908024    11.749590    -0.840969    -0.007114     0.005543    -0.064988     0.065610     0.001784    -0.002650     0.025826    -0.036899    -0.087200    -0.038685    -0.003653     0.042338
   40 O      4.670295     4.851117    15.170960    -0.835226    -0.008825    -0.031082    -0.083650     0.089673     0.004920    -0.001397     0.048108    -0.044798    -0.088038    -0.054858    -0.007658     0.062516
   41 O      6.096045     4.987923     9.432287    -0.875696    -0.009137     0.025091     0.006517     0.027487    -0.019231    -0.005359     0.002173    -0.005883     0.000929    -0.019968    -0.000645     0.020612
   42 O      2.438692     5.983407     6.540934    -0.867788    -0.009696     0.024369    -0.002510     0.026347    -0.018717    -0.009981     0.003409    -0.005491     0.008506    -0.021605    -0.000381     0.021985
   43 O      3.108729     4.015513    12.947948    -0.871678    -0.005268     0.026241     0.010050     0.028589    -0.019703     0.000590     0.001264     0.001246     0.019346    -0.022996     0.006487     0.016509
   44 O      6.795560     3.082461    15.846980    -0.879147    -0.013008     0.012410    -0.007948     0.019656    -0.012564    -0.010579     0.002770     0.009667     0.002041    -0.014959    -0.004068     0.019027
   45 O      5.424572     7.023531     2.742323    -0.852009    -0.006455     0.013056    -0.027756     0.031345    -0.016754    -0.022757    -0.010896     0.033113     0.003324    -0.035325     0.001649     0.033676
   46 O      7.249421     7.139789     7.811859    -0.842781     0.006750    -0.015130     0.069089     0.071048     0.002282    -0.002302     0.024852    -0.043798    -0.096566    -0.040339    -0.005605     0.045945
   47 O      3.597520     8.219980     4.962825    -0.814894     0.008865     0.011654     0.085145     0.086395     0.003829    -0.002198     0.048439    -0.066962    -0.104008    -0.056842    -0.015907     0.072749
   48 O      4.269789     6.173260    11.349844    -0.846648     0.006398    -0.013713     0.058584     0.060506     0.002498    -0.003262     0.024452    -0.036070    -0.098467    -0.041151    -0.001286     0.042438
   49 O      7.929328     5.218652    14.179333    -0.858440     0.004785    -0.021758     0.040977     0.046641     0.001431    -0.004827     0.012321    -0.031597    -0.110415    -0.039476     0.003187     0.036289
   50 O      4.949119     4.264813    17.696880    -0.719427     0.016483    -0.058231     0.146764     0.158752    -0.000284     0.005623    -0.012740    -0.162153    -0.056267    -0.072296    -0.019630     0.091926
   51 O      3.909734     3.989963     7.964922    -0.875137    -0.001225    -0.018878    -0.012305     0.022568     0.002578     0.000844     0.018005     0.009741     0.028566    -0.020601     0.000056     0.020545
   52 O      6.885315     4.963231     4.361832    -0.862881    -0.001033    -0.018491     0.005871     0.019428     0.002314     0.002687     0.014613     0.002995     0.055883    -0.016973    -0.008022     0.024995
   53 O      7.568409     2.971105    10.804747    -0.875962    -0.001215    -0.020935    -0.018561     0.028005     0.002377     0.000144     0.021021     0.006284     0.013372    -0.022181     0.000925     0.021256
   54 O      4.584367     2.009838    14.319145    -0.875720    -0.000904     0.001613    -0.007506     0.007730     0.001884    -0.001983     0.019222     0.003060    -0.026489    -0.023318     0.006186     0.017132
   55 O      1.584995     0.945891    17.878219    -0.535540     0.011462    -0.042238     0.112383     0.120604     0.035019    -0.006914    -0.060068     0.375864    -0.102112    -0.195842    -0.013002     0.208844
   56 O      9.177229     9.057860     6.882573    -0.871421    -0.007731    -0.021644    -0.005495     0.023631     0.017372     0.002920    -0.003345     0.001990     0.008659    -0.019714     0.003755     0.015959
   57 O      2.264912     0.044081     4.597865    -0.865690    -0.017150    -0.014624    -0.003642     0.022831     0.019718     0.003867    -0.012839     0.006830     0.020409    -0.027867     0.008230     0.019637
   58 O      6.203112     8.085251    10.431337    -0.879719    -0.010678    -0.023154    -0.004998     0.025983     0.020078     0.003598    -0.001877    -0.004136    -0.005891    -0.020057    -0.001155     0.021212
   59 O      3.226487     7.081430    13.981863    -0.886964    -0.009067    -0.022912    -0.012221     0.027505     0.020476     0.000979    -0.001951    -0.008972    -0.039437    -0.015855    -0.011700     0.027555
   60 O      6.888860     6.097408    16.982076    -0.825375     0.009205    -0.018134     0.023676     0.031210     0.019700     0.004484    -0.018777     0.039296    -0.049683    -0.037230     0.000925     0.036305
   61 O      2.078685     4.988152     9.858766    -0.875204     0.011030     0.025628     0.005530     0.028444     0.018647     0.005441    -0.001508    -0.003143    -0.005092    -0.019312    -0.000566     0.019878
   62 O      5.053208     5.983756     6.263700    -0.869630     0.009402     0.024983    -0.003056     0.026868     0.019397     0.009221    -0.001142    -0.000865    -0.006333    -0.021309    -0.000551     0.021860
   63 O      5.743808     4.015513    12.669686    -0.869869     0.005954     0.026665     0.008042     0.028480     0.019743     0.001333    -0.002657     0.001617     0.012740    -0.022188     0.004494     0.017694
   64 O      2.749490     3.069162    16.299913    -0.872501     0.010258     0.009329    -0.004454     0.014563     0.012143     0.008594    -0.002010     0.010974    -0.008868    -0.015435    -0.001411     0.016846
   65 O      7.988619     7.044208     2.482667    -0.857338     0.000538     0.016889    -0.026688     0.031588     0.014354     0.017369    -0.015724     0.047075    -0.019189    -0.037850     0.002640     0.035210
   66 O      4.074018     0.096270     9.480947    -0.878617     0.001870     0.015176     0.016634     0.022594     0.003013     0.000248     0.020044     0.007545     0.014509    -0.021685     0.001357     0.020328
   67 O      0.417906     1.051247     6.646872    -0.879516     0.001698    -0.006224     0.010748     0.012536     0.002517    -0.000698     0.021003    -0.001023    -0.023012    -0.023667     0.003334     0.020333
   68 O      4.375513     9.084349    12.325540    -0.875551     0.002887     0.017063     0.021573     0.027656     0.002757     0.001025     0.019282     0.007978     0.024528    -0.021019    -0.000221     0.021240
   69 O      8.026623     8.107796    15.118754    -0.818169     0.001810     0.013531     0.015042     0.020313     0.000628     0.003060     0.004773     0.010306     0.059366    -0.015694    -0.005117     0.020811
   70 O      3.352785     2.228876     3.089534    -0.758876    -0.024672    -0.108584    -0.088094     0.141985    -0.011735    -0.002582     0.007354     0.051268     0.020910    -0.032793     0.007151     0.025642
   71 O      6.043331     2.039003     8.505022    -0.843588    -0.066614    -0.001136     0.008337     0.067143     0.002282     0.005216     0.009373    -0.077603     0.010266    -0.041142     0.001462     0.039679
   72 O      2.385453     3.047276     5.666895    -0.849391    -0.067221    -0.014865     0.022191     0.072333    -0.000264     0.008144     0.013561    -0.080327    -0.039202    -0.036751    -0.012905     0.049656
   73 O      3.061315     1.054791    12.035240    -0.843546    -0.068180     0.001869     0.003820     0.068312    -0.001117     0.005042     0.010649    -0.079201     0.004122    -0.040962    -0.000763     0.041725
   74 O      0.066728     0.042344    15.572766    -0.833677    -0.054954     0.015553    -0.002209     0.057155    -0.002427     0.004044     0.010776    -0.077847    -0.017147    -0.036788    -0.007353     0.044141
   75 O      5.064486     4.454576     1.797778    -0.808261     0.021279    -0.069809    -0.101198     0.124769     0.021569     0.011864     0.034920    -0.010235     0.047514    -0.035669    -0.015112     0.050781
   76 O      1.939527     2.039152     8.942536    -0.842698     0.066635    -0.000903    -0.004311     0.066781     0.000872     0.004214     0.010340    -0.077637     0.010672    -0.040996     0.000971     0.040025
   77 O      4.916897     3.047726     5.384825    -0.853323     0.070476    -0.014006     0.009018     0.072418     0.003697    -0.005885     0.015208    -0.083622    -0.035925    -0.037831    -0.013671     0.051503
   78 O      5.598968     1.054162    11.768913    -0.845159     0.068776     0.000424    -0.011604     0.069749     0.003403     0.004398     0.009763    -0.079627     0.008117    -0.041678     0.000491     0.041187
   79 O      2.627825     0.045719    15.297761    -0.836372     0.052653     0.016990    -0.016386     0.057701     0.002098     0.003146     0.009627    -0.079848    -0.024583    -0.036194    -0.009630     0.045824
   80 O      1.477190     4.451122     2.134460    -0.822796    -0.013474    -0.091457    -0.105969     0.140625    -0.026477    -0.021079     0.040769    -0.026404     0.071596    -0.041925    -0.024761     0.066686
   81 O      4.179202     3.189624    10.498001    -0.874682     0.000130    -0.034357     0.002838     0.034474    -0.001057    -0.000383    -0.014743    -0.019617    -0.040814    -0.019641    -0.002999     0.022640
   82 O      7.154390     4.168444     6.920666    -0.862750     0.000041    -0.042379     0.000759     0.042386    -0.000279    -0.000903    -0.013769    -0.022574    -0.041186    -0.018914    -0.004361     0.023275
   83 O      1.208206     2.198294    14.075257    -0.857522     0.004356    -0.041479     0.026644     0.049492    -0.001554    -0.001011    -0.018128    -0.028043    -0.034444    -0.020000    -0.008098     0.028098
   84 O      4.857999     1.163042    16.804313    -0.788689     0.014411    -0.071679     0.129017     0.148293    -0.004422    -0.005201    -0.014384    -0.020105    -0.139274    -0.049495     0.013188     0.036308
   85 O      3.485294     5.259558     4.035774    -0.871381    -0.000045    -0.001391     0.043124     0.043147     0.003498    -0.004352    -0.007145    -0.032957    -0.088430    -0.030839    -0.001672     0.032512
   86 O      5.173425     9.057321     7.310143    -0.873861     0.007545    -0.022701    -0.007601     0.025101    -0.017119    -0.001747    -0.001359     0.000180     0.016274    -0.020021     0.005605     0.014416
   87 O      4.815027     0.054305     4.315197    -0.865628     0.016309    -0.014734    -0.008632     0.023613    -0.021690    -0.002488    -0.007264     0.006019     0.019693    -0.026708     0.007373     0.019335
   88 O      8.820126     8.084133    10.149620    -0.878849     0.009118    -0.023067    -0.008134     0.026104    -0.020537    -0.004248     0.001996    -0.006912    -0.004157    -0.020339    -0.001952     0.022291
   89 O      5.845208     7.080801    13.706783    -0.887940     0.007249    -0.022599    -0.013569     0.027338    -0.019454    -0.005026     0.001596    -0.010207    -0.035414    -0.016389    -0.010119     0.026508
   90 O      2.892927     6.096610    17.407555    -0.825102    -0.004539    -0.016757     0.025684     0.031001    -0.022320    -0.013841    -0.014890     0.035064    -0.039048    -0.037577     0.001850     0.035727
 
The sperically averaged electron density of each atom fit to a function of the form exp(a - br) for r >=rmin_cloud_penetration
atom number,atomic symbol, x, y, z, a, b, Rsquared where a and b are in atomic units and Rsquared is the squared correlation coefficient
    1 Co     6.768831     8.516367     3.264834    -0.765890     1.776262     0.999954
    2 Co     1.491688     4.589026    16.759503    -0.781575     1.764935     0.999990
    3 Co     3.804375     7.532745     6.947667    -0.842085     1.746936     0.999999
    4 Co     7.457224     6.536192     9.791086    -0.833471     1.747967     0.999998
    5 Co     4.475165     5.551162    13.268140    -0.827890     1.747909     0.999997
    6 Co     3.989817     2.032613     8.706482    -0.839401     1.747597     0.999998
    7 Co     6.964170     2.976667     5.132857    -0.812855     1.751206     0.999995
    8 Co     1.017424     1.042041    12.300788    -0.840587     1.747607     0.999998
    9 Co     4.670139     0.118944    15.124177    -0.872575     1.746195     0.999998
   10 Co     3.393134     3.937605     2.535880    -0.697437     1.806768     0.999762
   11 Sb     3.706859     4.517708     6.040497     0.296752     1.750839     0.999993
   12 Sb     6.708050     5.355278     2.428703     0.430955     1.781644     0.999967
   13 Sb     7.361387     3.534734     8.871751     0.270260     1.749704     0.999993
   14 Sb     4.384709     2.556753    12.409401     0.261056     1.749635     0.999993
   15 Sb     1.410739     1.551175    16.050410     0.359257     1.757484     0.999993
   16 Sb     3.586401     1.533333     4.940385     0.357029     1.762386     0.999990
   17 Sb     8.227040     7.622245    17.016602     0.572462     1.775006     0.999064
   18 Sb     0.621435     0.528604     8.577338     0.269404     1.750339     0.999991
   19 Sb     7.557990     9.543811    10.705874     0.271985     1.749773     0.999994
   20 Sb     4.580385     8.549855    14.276110     0.298229     1.751251     0.999994
   21 Sb     7.170163     9.034836     7.041301     0.275164     1.749893     0.999995
   22 Sb     0.222210     0.155587     4.796593     0.439223     1.781627     0.999988
   23 Sb     4.190811     8.063724    10.603540     0.274573     1.749958     0.999994
   24 Sb     7.841957     7.081909    13.375899     0.283007     1.749958     0.999997
   25 Sb     4.842784     5.984405    16.739504     0.430231     1.781550     0.999804
   26 Sb     4.091609     5.021171     9.691453     0.277198     1.750399     0.999994
   27 Sb     7.073403     6.004124     6.140482     0.284100     1.750045     0.999995
   28 Sb     7.750906     4.008813    12.522650     0.273602     1.750026     0.999994
   29 Sb     4.780711     2.967920    16.124999     0.356761     1.765161     0.999995
   30 Sb     3.424474     7.156113     3.329442     0.510606     1.781045     0.999976
   31 O      3.798371     0.868722     6.889832    -0.855668     1.749763     0.999998
   32 O      6.788960     1.953406     3.438366    -1.097693     1.751861     0.999997
   33 O      4.102780     9.889091     9.799481    -0.834935     1.749845     0.999999
   34 O      7.761643     8.922182    12.630444    -0.838971     1.750587     0.999998
   35 O      4.786515     7.863218    16.236513    -1.017130     1.746071     0.999997
   36 O      6.997602     7.863248     5.376450    -0.865054     1.753058     0.999997
   37 O      3.337709     8.923490     2.441589    -1.195214     1.780292     0.999568
   38 O      4.013145     6.905625     8.935315    -0.871019     1.752069     0.999997
   39 O      7.667235     5.908024    11.749590    -0.866879     1.751407     0.999996
   40 O      4.670295     4.851117    15.170960    -0.802470     1.758773     0.999996
   41 O      6.096045     4.987923     9.432287    -0.834023     1.750123     0.999999
   42 O      2.438692     5.983407     6.540934    -0.846111     1.749077     0.999999
   43 O      3.108729     4.015513    12.947948    -0.854892     1.749300     0.999999
   44 O      6.795560     3.082461    15.846980    -0.792266     1.756283     0.999997
   45 O      5.424572     7.023531     2.742323    -0.813210     1.778560     0.999927
   46 O      7.249421     7.139789     7.811859    -0.871011     1.751898     0.999997
   47 O      3.597520     8.219980     4.962825    -0.856495     1.755931     0.999995
   48 O      4.269789     6.173260    11.349844    -0.869098     1.751468     0.999997
   49 O      7.929328     5.218652    14.179333    -0.839003     1.752900     0.999995
   50 O      4.949119     4.264813    17.696880    -1.869166     1.647564     0.992114
   51 O      3.909734     3.989963     7.964922    -0.845008     1.749863     0.999999
   52 O      6.885315     4.963231     4.361832    -0.851982     1.753554     0.999995
   53 O      7.568409     2.971105    10.804747    -0.844781     1.750362     0.999999
   54 O      4.584367     2.009838    14.319145    -0.840623     1.750327     0.999999
   55 O      1.584995     0.945891    17.878219    -1.847197     1.667835     0.993996
   56 O      9.177229     9.057860     6.882573    -0.848416     1.749630     0.999999
   57 O      2.264912     0.044081     4.597865    -0.828336     1.758481     0.999998
   58 O      6.203112     8.085251    10.431337    -0.832551     1.749891     0.999999
   59 O      3.226487     7.081430    13.981863    -0.803249     1.750826     0.999998
   60 O      6.888860     6.097408    16.982076    -1.091448     1.734370     0.998711
   61 O      2.078685     4.988152     9.858766    -0.832413     1.750097     0.999999
   62 O      5.053208     5.983756     6.263700    -0.843800     1.749089     0.999999
   63 O      5.743808     4.015513    12.669686    -0.853905     1.749327     0.999999
   64 O      2.749490     3.069162    16.299913    -0.809900     1.755451     0.999996
   65 O      7.988619     7.044208     2.482667    -0.786926     1.780994     0.999920
   66 O      4.074018     0.096270     9.480947    -0.836414     1.750152     0.999999
   67 O      0.417906     1.051247     6.646872    -0.834749     1.751116     0.999999
   68 O      4.375513     9.084349    12.325540    -0.840082     1.749850     0.999999
   69 O      8.026623     8.107796    15.118754    -0.861345     1.753788     0.999983
   70 O      3.352785     2.228876     3.089534    -1.048841     1.771630     0.999816
   71 O      6.043331     2.039003     8.505022    -0.870609     1.751294     0.999997
   72 O      2.385453     3.047276     5.666895    -0.805250     1.754948     0.999998
   73 O      3.061315     1.054791    12.035240    -0.865974     1.751461     0.999997
   74 O      0.066728     0.042344    15.572766    -0.859247     1.750981     0.999998
   75 O      5.064486     4.454576     1.797778    -0.989216     1.784008     0.999827
   76 O      1.939527     2.039152     8.942536    -0.870829     1.751400     0.999996
   77 O      4.916897     3.047726     5.384825    -0.794985     1.755571     0.999997
   78 O      5.598968     1.054162    11.768913    -0.870471     1.751496     0.999997
   79 O      2.627825     0.045719    15.297761    -0.851035     1.751254     0.999998
   80 O      1.477190     4.451122     2.134460    -1.003769     1.784018     0.999875
   81 O      4.179202     3.189624    10.498001    -0.830691     1.750148     0.999999
   82 O      7.154390     4.168444     6.920666    -0.850995     1.749723     0.999999
   83 O      1.208206     2.198294    14.075257    -0.856635     1.749585     0.999999
   84 O      4.857999     1.163042    16.804313    -1.196506     1.728932     0.999647
   85 O      3.485294     5.259558     4.035774    -0.703231     1.761978     0.999998
   86 O      5.173425     9.057321     7.310143    -0.848311     1.749637     0.999999
   87 O      4.815027     0.054305     4.315197    -0.805478     1.763596     0.999996
   88 O      8.820126     8.084133    10.149620    -0.831928     1.749939     0.999999
   89 O      5.845208     7.080801    13.706783    -0.801421     1.750783     0.999998
   90 O      2.892927     6.096610    17.407555    -1.072490     1.738534     0.998686
 
 2023/11/28  10:31:58
