   96
jmolscript: load "" {1 1 1} spacegroup "x,y,z" unitcell [{      9.414376     0.000000     0.000000 }, {      0.000000    10.433420    -0.917857 }, {      0.000000     0.000000     0.000000 }]
Ni     2.497408     2.657820     3.638656     1.139181
Ni     7.204596     2.657820     3.638656     1.139181
Ni     2.353594     0.869448     8.365999     1.165762
Ni     7.060782     0.869448     8.365999     1.165762
Ni     2.284106     9.532609    11.576468     1.213646
Ni     6.991294     9.532609    11.576468     1.213646
Ni     0.069488     4.315899    12.035397     1.213646
Ni     4.776676     4.315899    12.035397     1.213645
Ni     9.270562     7.874530     3.179727     1.139181
Ni     4.563374     7.874530     3.179727     1.139181
Ni     0.000000     6.086158     7.907071     1.165762
Ni     4.707188     6.086158     7.907071     1.165762
Sb     2.415108    10.197677     1.984416     1.751655
Sb     7.122296    10.197677     1.984416     1.751655
Sb     2.351476     8.407219     6.257542     1.979152
Sb     7.058664     8.407219     6.257542     1.979152
Sb     2.274052     6.641446    10.790890     1.928258
Sb     6.981240     6.641446    10.790890     1.928258
Sb     9.352862     4.980967     2.443344     1.751655
Sb     4.645674     4.980967     2.443344     1.751655
Sb     0.002118     3.190509     6.716471     1.979152
Sb     4.709306     3.190509     6.716471     1.979152
Sb     0.079542     1.424736    11.249819     1.928258
Sb     4.786730     1.424736    11.249819     1.928258
Sb     2.325859     5.511068     5.114400     1.970037
Sb     7.033047     5.511068     5.114400     1.970037
Sb     2.403566     3.737835     9.510800     1.996666
Sb     7.110754     3.737835     9.510800     1.996666
Sb     0.027735     0.294358     5.573328     1.970037
Sb     4.734923     0.294358     5.573328     1.970037
Sb     9.364404     8.954545     9.051871     1.996666
Sb     4.657216     8.954545     9.051871     1.996666
O      3.704180     3.407711     2.067296    -0.738758
O      8.411368     3.407711     2.067296    -0.738758
O      3.785991     1.419978     6.964092    -0.836108
O      8.493179     1.419978     6.964092    -0.836108
O      3.716184    10.117152    10.441889    -0.856809
O      8.423372    10.117152    10.441889    -0.856809
O      0.978747     2.060715     5.328227    -0.821184
O      5.685935     2.060715     5.328227    -0.821184
O      0.919606     0.288776     9.768633    -0.845223
O      5.626794     0.288776     9.768633    -0.845223
O      1.374847     7.277425     4.869298    -0.821184
O      6.082035     7.277425     4.869298    -0.821184
O      1.433988     5.505486     9.309705    -0.845223
O      6.141176     5.505486     9.309705    -0.845223
O      3.356602     8.624421     1.608367    -0.738758
O      8.063790     8.624421     1.608367    -0.738758
O      3.274791     6.636688     6.505164    -0.836108
O      7.981979     6.636688     6.505164    -0.836108
O      3.344598     4.900442    10.900817    -0.856809
O      8.051786     4.900442    10.900817    -0.856809
O      3.697939     9.012336     4.824923    -0.863885
O      8.405127     9.012336     4.824923    -0.863885
O      3.680306     7.227877     9.368045    -0.865888
O      8.387494     7.227877     9.368045    -0.865888
O      0.975414     9.626165     3.224832    -0.851655
O      5.682602     9.626165     3.224832    -0.851655
O      0.988735     7.915533     7.702193    -0.876054
O      5.695923     7.915533     7.702193    -0.876054
O      1.014832     5.837269    12.142219    -0.725816
O      5.722020     5.837269    12.142219    -0.725816
O      1.378180     4.409455     3.683760    -0.851655
O      6.085368     4.409455     3.683760    -0.851655
O      1.364859     2.698823     8.161121    -0.876054
O      6.072047     2.698823     8.161121    -0.876054
O      1.338762     0.620559    12.601148    -0.725816
O      6.045950     0.620559    12.601148    -0.725816
O      3.362843     3.795626     5.283851    -0.863885
O      8.070031     3.795626     5.283851    -0.863885
O      3.380476     2.011167     9.826974    -0.865888
O      8.087664     2.011167     9.826974    -0.865888
O      0.959767     4.930521     6.461277    -0.858519
O      5.666955     4.930521     6.461277    -0.858519
O      1.129367     3.125759    10.907458    -0.870949
O      5.836555     3.125759    10.907458    -0.870949
O      0.646899     6.538437     1.664227    -0.724394
O      5.354087     6.538437     1.664227    -0.724394
O      3.605028     6.110249     3.684607    -0.857842
O      8.312216     6.110249     3.684607    -0.857842
O      3.718453     4.256794     8.111974    -0.862057
O      8.425641     4.256794     8.111974    -0.862057
O      4.073271     2.708088    12.600696    -0.689217
O      8.780459     2.708088    12.600696    -0.689218
O      3.455754     0.893539     4.143536    -0.857842
O      8.162942     0.893539     4.143536    -0.857842
O      3.342329     9.473504     7.653045    -0.862057
O      8.049517     9.473504     7.653045    -0.862057
O      2.987511     7.924798    12.141767    -0.689218
O      7.694699     7.924798    12.141767    -0.689218
O      1.706695     1.321727     2.123155    -0.724394
O      6.413883     1.321727     2.123155    -0.724394
O      1.393827    10.147231     6.002348    -0.858519
O      6.101015    10.147231     6.002348    -0.858519
O      1.224227     8.342469    10.448530    -0.870949
O      5.931415     8.342469    10.448530    -0.870949
 
 Chargemol version 3.5 September 26, 2017.
See ddec.sourceforge.net for latest version.
 
Computational parameters:
Number of radial integration shells =    100
Cutoff radius (pm) =    500
Error in the integrated total number of electrons before renormalization (e) =    2.0823E-03
Charge convergence tolerance =    1.0000E-05
Minimum radius for electron cloud penetration fitting (pm) =    200
Minimum decay exponent for electron density of buried atom tails =   1.7500
Maximum decay exponent for electron density of buried atom tails =  2.5000
Number of iterations to convergence =      7
 
The following XYZ coordinates are in angstroms. The atomic dipoles and quadrupoles are in atomic units.
atom number, atomic symbol, x, y, z, net_charge, dipole_x, dipole_y, dipole_z, dipole_mag, Qxy, Qxz, Qyz,Q(x^2-y^2), Q(3z^2 - R^2), three eigenvalues of traceless quadrupole moment tensor
    1 Ni     2.497408     2.657820     3.638656     1.139181    -0.010576    -0.001216     0.007139     0.012818    -0.028012    -0.016823    -0.000893     0.031681     0.196937    -0.065670    -0.003455     0.069125
    2 Ni     7.204596     2.657820     3.638656     1.139181    -0.010576    -0.001216     0.007139     0.012818    -0.028012    -0.016823    -0.000893     0.031681     0.196937    -0.065670    -0.003455     0.069125
    3 Ni     2.353594     0.869448     8.365999     1.165762     0.001115    -0.006007     0.000357     0.006120     0.002787    -0.009912     0.001115     0.029710    -0.000277    -0.015405    -0.004543     0.019948
    4 Ni     7.060782     0.869448     8.365999     1.165762     0.001115    -0.006007     0.000357     0.006120     0.002787    -0.009912     0.001115     0.029710    -0.000277    -0.015405    -0.004543     0.019948
    5 Ni     2.284106     9.532609    11.576468     1.213646     0.014630     0.028555     0.065767     0.073176     0.090879    -0.030659     0.024668     0.030594     0.042102    -0.111127     0.025111     0.086015
    6 Ni     6.991294     9.532609    11.576468     1.213646     0.014630     0.028555     0.065767     0.073176     0.090879    -0.030659     0.024668     0.030594     0.042102    -0.111127     0.025111     0.086015
    7 Ni     0.069488     4.315899    12.035397     1.213646    -0.014630     0.028555     0.065767     0.073176    -0.090879     0.030659     0.024668     0.030594     0.042102    -0.111127     0.025111     0.086015
    8 Ni     4.776676     4.315899    12.035397     1.213645    -0.014630     0.028555     0.065767     0.073176    -0.090879     0.030659     0.024668     0.030594     0.042102    -0.111127     0.025111     0.086015
    9 Ni     9.270562     7.874530     3.179727     1.139181     0.010576    -0.001216     0.007139     0.012818     0.028012     0.016823    -0.000893     0.031681     0.196937    -0.065670    -0.003455     0.069125
   10 Ni     4.563374     7.874530     3.179727     1.139181     0.010576    -0.001216     0.007139     0.012818     0.028012     0.016823    -0.000893     0.031681     0.196937    -0.065670    -0.003455     0.069125
   11 Ni     0.000000     6.086158     7.907071     1.165762    -0.001115    -0.006007     0.000357     0.006120    -0.002787     0.009912     0.001115     0.029710    -0.000277    -0.015405    -0.004543     0.019948
   12 Ni     4.707188     6.086158     7.907071     1.165762    -0.001115    -0.006007     0.000357     0.006120    -0.002787     0.009912     0.001115     0.029710    -0.000277    -0.015405    -0.004543     0.019948
   13 Sb     2.415108    10.197677     1.984416     1.751655    -0.034085    -0.041091    -0.040850     0.067224     0.192399     0.013831     0.060629     0.158769     0.480482    -0.292285     0.097648     0.194637
   14 Sb     7.122296    10.197677     1.984416     1.751655    -0.034085    -0.041091    -0.040850     0.067224     0.192399     0.013831     0.060629     0.158769     0.480482    -0.292285     0.097648     0.194637
   15 Sb     2.351476     8.407219     6.257542     1.979152     0.002261     0.018415     0.011429     0.021791    -0.010901     0.011267    -0.033324     0.096315     0.080353    -0.073141     0.022385     0.050756
   16 Sb     7.058664     8.407219     6.257542     1.979152     0.002261     0.018415     0.011429     0.021791    -0.010901     0.011267    -0.033324     0.096315     0.080353    -0.073141     0.022385     0.050756
   17 Sb     2.274052     6.641446    10.790890     1.928258     0.007928     0.002266    -0.010781     0.013573    -0.088733     0.035583    -0.030673     0.227795     0.200919    -0.179140     0.041103     0.138037
   18 Sb     6.981240     6.641446    10.790890     1.928258     0.007928     0.002266    -0.010781     0.013573    -0.088733     0.035583    -0.030673     0.227795     0.200919    -0.179140     0.041103     0.138037
   19 Sb     9.352862     4.980967     2.443344     1.751655     0.034085    -0.041091    -0.040850     0.067224    -0.192399    -0.013831     0.060629     0.158769     0.480482    -0.292285     0.097648     0.194637
   20 Sb     4.645674     4.980967     2.443344     1.751655     0.034085    -0.041091    -0.040850     0.067224    -0.192399    -0.013831     0.060629     0.158769     0.480482    -0.292285     0.097648     0.194637
   21 Sb     0.002118     3.190509     6.716471     1.979152    -0.002261     0.018415     0.011429     0.021791     0.010901    -0.011267    -0.033324     0.096315     0.080353    -0.073141     0.022385     0.050756
   22 Sb     4.709306     3.190509     6.716471     1.979152    -0.002261     0.018415     0.011429     0.021791     0.010901    -0.011267    -0.033324     0.096315     0.080353    -0.073141     0.022385     0.050756
   23 Sb     0.079542     1.424736    11.249819     1.928258    -0.007928     0.002266    -0.010781     0.013573     0.088733    -0.035583    -0.030673     0.227795     0.200919    -0.179140     0.041103     0.138037
   24 Sb     4.786730     1.424736    11.249819     1.928258    -0.007928     0.002266    -0.010781     0.013573     0.088733    -0.035583    -0.030673     0.227795     0.200919    -0.179140     0.041103     0.138037
   25 Sb     2.325859     5.511068     5.114400     1.970037    -0.002767    -0.022721    -0.003761     0.023196     0.013076     0.023108    -0.033570     0.086781     0.055338    -0.070177     0.018467     0.051710
   26 Sb     7.033047     5.511068     5.114400     1.970037    -0.002767    -0.022721    -0.003761     0.023196     0.013076     0.023108    -0.033570     0.086781     0.055338    -0.070177     0.018467     0.051710
   27 Sb     2.403566     3.737835     9.510800     1.996666    -0.000796    -0.002723    -0.012091     0.012420     0.027104     0.017933    -0.036947     0.053873     0.027481    -0.065367     0.030399     0.034968
   28 Sb     7.110754     3.737835     9.510800     1.996666    -0.000796    -0.002723    -0.012091     0.012420     0.027104     0.017933    -0.036947     0.053873     0.027481    -0.065367     0.030399     0.034968
   29 Sb     0.027735     0.294358     5.573328     1.970037     0.002767    -0.022721    -0.003761     0.023196    -0.013076    -0.023108    -0.033570     0.086781     0.055338    -0.070177     0.018467     0.051710
   30 Sb     4.734923     0.294358     5.573328     1.970037     0.002767    -0.022721    -0.003761     0.023196    -0.013076    -0.023108    -0.033570     0.086781     0.055338    -0.070177     0.018467     0.051710
   31 Sb     9.364404     8.954545     9.051871     1.996666     0.000796    -0.002723    -0.012091     0.012420    -0.027104    -0.017933    -0.036947     0.053873     0.027481    -0.065367     0.030399     0.034968
   32 Sb     4.657216     8.954545     9.051871     1.996666     0.000796    -0.002723    -0.012091     0.012420    -0.027104    -0.017933    -0.036947     0.053873     0.027481    -0.065367     0.030399     0.034968
   33 O      3.704180     3.407711     2.067296    -0.738758    -0.042065    -0.157458    -0.108922     0.196027     0.071911     0.023710     0.045439    -0.067120    -0.126230    -0.062607    -0.054210     0.116816
   34 O      8.411368     3.407711     2.067296    -0.738758    -0.042065    -0.157458    -0.108922     0.196027     0.071911     0.023710     0.045439    -0.067120    -0.126230    -0.062607    -0.054210     0.116816
   35 O      3.785991     1.419978     6.964092    -0.836108    -0.057596    -0.023441     0.047867     0.078473    -0.006113     0.023818     0.021760    -0.067352    -0.036898    -0.048640     0.000840     0.047800
   36 O      8.493179     1.419978     6.964092    -0.836108    -0.057596    -0.023441     0.047867     0.078473    -0.006113     0.023818     0.021760    -0.067352    -0.036898    -0.048640     0.000840     0.047800
   37 O      3.716184    10.117152    10.441889    -0.856809    -0.044468     0.005090     0.024705     0.051124    -0.008402     0.002091     0.024112    -0.066719     0.011321    -0.037064    -0.008847     0.045911
   38 O      8.423372    10.117152    10.441889    -0.856809    -0.044468     0.005090     0.024705     0.051124    -0.008402     0.002091     0.024112    -0.066719     0.011321    -0.037064    -0.008847     0.045911
   39 O      0.978747     2.060715     5.328227    -0.821184     0.080252     0.030846    -0.055749     0.102468     0.002673     0.008002     0.021693    -0.055677    -0.099976    -0.040673    -0.009813     0.050486
   40 O      5.685935     2.060715     5.328227    -0.821184     0.080252     0.030846    -0.055749     0.102468     0.002673     0.008002     0.021693    -0.055677    -0.099976    -0.040673    -0.009813     0.050486
   41 O      0.919606     0.288776     9.768633    -0.845223     0.038144     0.029092    -0.053167     0.071610    -0.003255     0.006476     0.031472    -0.059378    -0.077833    -0.040394    -0.014524     0.054918
   42 O      5.626794     0.288776     9.768633    -0.845223     0.038144     0.029092    -0.053167     0.071610    -0.003255     0.006476     0.031472    -0.059378    -0.077833    -0.040394    -0.014524     0.054918
   43 O      1.374847     7.277425     4.869298    -0.821184    -0.080252     0.030846    -0.055749     0.102468    -0.002673    -0.008002     0.021693    -0.055677    -0.099976    -0.040673    -0.009813     0.050486
   44 O      6.082035     7.277425     4.869298    -0.821184    -0.080252     0.030846    -0.055749     0.102468    -0.002673    -0.008002     0.021693    -0.055677    -0.099976    -0.040673    -0.009813     0.050486
   45 O      1.433988     5.505486     9.309705    -0.845223    -0.038144     0.029092    -0.053167     0.071610     0.003255    -0.006476     0.031472    -0.059378    -0.077833    -0.040394    -0.014524     0.054918
   46 O      6.141176     5.505486     9.309705    -0.845223    -0.038144     0.029092    -0.053167     0.071610     0.003255    -0.006476     0.031472    -0.059378    -0.077833    -0.040394    -0.014524     0.054918
   47 O      3.356602     8.624421     1.608367    -0.738758     0.042065    -0.157458    -0.108922     0.196027    -0.071911    -0.023710     0.045439    -0.067120    -0.126230    -0.062607    -0.054210     0.116816
   48 O      8.063790     8.624421     1.608367    -0.738758     0.042065    -0.157458    -0.108922     0.196027    -0.071911    -0.023710     0.045439    -0.067120    -0.126230    -0.062607    -0.054210     0.116816
   49 O      3.274791     6.636688     6.505164    -0.836108     0.057596    -0.023441     0.047867     0.078473     0.006113    -0.023818     0.021760    -0.067352    -0.036898    -0.048640     0.000840     0.047800
   50 O      7.981979     6.636688     6.505164    -0.836108     0.057596    -0.023441     0.047867     0.078473     0.006113    -0.023818     0.021760    -0.067352    -0.036898    -0.048640     0.000840     0.047800
   51 O      3.344598     4.900442    10.900817    -0.856809     0.044468     0.005090     0.024705     0.051124     0.008402    -0.002091     0.024112    -0.066719     0.011321    -0.037064    -0.008847     0.045911
   52 O      8.051786     4.900442    10.900817    -0.856809     0.044468     0.005090     0.024705     0.051124     0.008402    -0.002091     0.024112    -0.066719     0.011321    -0.037064    -0.008847     0.045911
   53 O      3.697939     9.012336     4.824923    -0.863885    -0.004175    -0.044179    -0.005055     0.044663     0.016875    -0.005681    -0.001021    -0.022133    -0.081278    -0.028244    -0.005696     0.033940
   54 O      8.405127     9.012336     4.824923    -0.863885    -0.004175    -0.044179    -0.005055     0.044663     0.016875    -0.005681    -0.001021    -0.022133    -0.081278    -0.028244    -0.005696     0.033940
   55 O      3.680306     7.227877     9.368045    -0.865888    -0.021846    -0.043242    -0.005329     0.048740     0.021758     0.010968    -0.008171    -0.014273    -0.041398    -0.028620    -0.001180     0.029799
   56 O      8.387494     7.227877     9.368045    -0.865888    -0.021846    -0.043242    -0.005329     0.048740     0.021758     0.010968    -0.008171    -0.014273    -0.041398    -0.028620    -0.001180     0.029799
   57 O      0.975414     9.626165     3.224832    -0.851655     0.018404    -0.032918    -0.001849     0.037759    -0.006365    -0.031347     0.012136    -0.012897     0.070146    -0.034978    -0.009053     0.044031
   58 O      5.682602     9.626165     3.224832    -0.851655     0.018404    -0.032918    -0.001849     0.037759    -0.006365    -0.031347     0.012136    -0.012897     0.070146    -0.034978    -0.009053     0.044031
   59 O      0.988735     7.915533     7.702193    -0.876054     0.029794    -0.022298    -0.003055     0.037339    -0.016127    -0.005122     0.005813    -0.008692     0.016073    -0.019394     0.000840     0.018554
   60 O      5.695923     7.915533     7.702193    -0.876054     0.029794    -0.022298    -0.003055     0.037339    -0.016127    -0.005122     0.005813    -0.008692     0.016073    -0.019394     0.000840     0.018554
   61 O      1.014832     5.837269    12.142219    -0.725816    -0.011553     0.067696     0.067729     0.096454    -0.055167     0.023058    -0.036645     0.031735    -0.118703    -0.061374    -0.028632     0.090006
   62 O      5.722020     5.837269    12.142219    -0.725816    -0.011553     0.067696     0.067729     0.096454    -0.055167     0.023058    -0.036645     0.031735    -0.118703    -0.061374    -0.028632     0.090006
   63 O      1.378180     4.409455     3.683760    -0.851655    -0.018404    -0.032918    -0.001849     0.037759     0.006365     0.031347     0.012136    -0.012897     0.070146    -0.034978    -0.009053     0.044031
   64 O      6.085368     4.409455     3.683760    -0.851655    -0.018404    -0.032918    -0.001849     0.037759     0.006365     0.031347     0.012136    -0.012897     0.070146    -0.034978    -0.009053     0.044031
   65 O      1.364859     2.698823     8.161121    -0.876054    -0.029794    -0.022298    -0.003055     0.037339     0.016127     0.005122     0.005813    -0.008692     0.016073    -0.019394     0.000840     0.018554
   66 O      6.072047     2.698823     8.161121    -0.876054    -0.029794    -0.022298    -0.003055     0.037339     0.016127     0.005122     0.005813    -0.008692     0.016073    -0.019394     0.000840     0.018554
   67 O      1.338762     0.620559    12.601148    -0.725816     0.011553     0.067696     0.067729     0.096454     0.055167    -0.023058    -0.036645     0.031735    -0.118703    -0.061374    -0.028632     0.090006
   68 O      6.045950     0.620559    12.601148    -0.725816     0.011553     0.067696     0.067729     0.096454     0.055167    -0.023058    -0.036645     0.031735    -0.118703    -0.061374    -0.028632     0.090006
   69 O      3.362843     3.795626     5.283851    -0.863885     0.004175    -0.044179    -0.005055     0.044663    -0.016875     0.005681    -0.001021    -0.022133    -0.081278    -0.028244    -0.005696     0.033940
   70 O      8.070031     3.795626     5.283851    -0.863885     0.004175    -0.044179    -0.005055     0.044663    -0.016875     0.005681    -0.001021    -0.022133    -0.081278    -0.028244    -0.005696     0.033940
   71 O      3.380476     2.011167     9.826974    -0.865888     0.021846    -0.043242    -0.005329     0.048740    -0.021758    -0.010968    -0.008171    -0.014273    -0.041398    -0.028620    -0.001180     0.029799
   72 O      8.087664     2.011167     9.826974    -0.865888     0.021846    -0.043242    -0.005329     0.048740    -0.021758    -0.010968    -0.008171    -0.014273    -0.041398    -0.028620    -0.001180     0.029799
   73 O      0.959767     4.930521     6.461277    -0.858519     0.010655     0.027317     0.015630     0.033228     0.014897     0.002097    -0.002060    -0.017678    -0.023131    -0.014635    -0.006561     0.021197
   74 O      5.666955     4.930521     6.461277    -0.858519     0.010655     0.027317     0.015630     0.033228     0.014897     0.002097    -0.002060    -0.017678    -0.023131    -0.014635    -0.006561     0.021197
   75 O      1.129367     3.125759    10.907458    -0.870949     0.028270    -0.005880     0.013996     0.032088     0.000410     0.006584    -0.003882    -0.025232     0.020118    -0.017817     0.005247     0.012570
   76 O      5.836555     3.125759    10.907458    -0.870949     0.028270    -0.005880     0.013996     0.032088     0.000410     0.006584    -0.003882    -0.025232     0.020118    -0.017817     0.005247     0.012570
   77 O      0.646899     6.538437     1.664227    -0.724394     0.088501     0.136998    -0.136009     0.212366     0.051335    -0.027814    -0.066276    -0.113402    -0.128012    -0.073116    -0.054943     0.128060
   78 O      5.354087     6.538437     1.664227    -0.724394     0.088501     0.136998    -0.136009     0.212366     0.051335    -0.027814    -0.066276    -0.113402    -0.128012    -0.073116    -0.054943     0.128060
   79 O      3.605028     6.110249     3.684607    -0.857842    -0.021498     0.043122     0.010435     0.049300    -0.026356     0.000354     0.019394    -0.009472     0.058661    -0.039481     0.005214     0.034266
   80 O      8.312216     6.110249     3.684607    -0.857842    -0.021498     0.043122     0.010435     0.049300    -0.026356     0.000354     0.019394    -0.009472     0.058661    -0.039481     0.005214     0.034266
   81 O      3.718453     4.256794     8.111974    -0.862057    -0.012274     0.030171     0.010246     0.034146    -0.019021    -0.009515     0.012135    -0.005090     0.016274    -0.021935    -0.005381     0.027316
   82 O      8.425641     4.256794     8.111974    -0.862057    -0.012274     0.030171     0.010246     0.034146    -0.019021    -0.009515     0.012135    -0.005090     0.016274    -0.021935    -0.005381     0.027316
   83 O      4.073271     2.708088    12.600696    -0.689217    -0.086274    -0.019704     0.101170     0.134413    -0.018418     0.013793     0.028509     0.098541    -0.099611    -0.065399    -0.004569     0.069968
   84 O      8.780459     2.708088    12.600696    -0.689218    -0.086274    -0.019704     0.101170     0.134413    -0.018418     0.013793     0.028509     0.098541    -0.099611    -0.065399    -0.004569     0.069968
   85 O      3.455754     0.893539     4.143536    -0.857842     0.021498     0.043122     0.010435     0.049300     0.026356    -0.000354     0.019394    -0.009472     0.058661    -0.039481     0.005214     0.034266
   86 O      8.162942     0.893539     4.143536    -0.857842     0.021498     0.043122     0.010435     0.049300     0.026356    -0.000354     0.019394    -0.009472     0.058661    -0.039481     0.005214     0.034266
   87 O      3.342329     9.473504     7.653045    -0.862057     0.012274     0.030171     0.010246     0.034146     0.019021     0.009515     0.012135    -0.005090     0.016274    -0.021935    -0.005381     0.027316
   88 O      8.049517     9.473504     7.653045    -0.862057     0.012274     0.030171     0.010246     0.034146     0.019021     0.009515     0.012135    -0.005090     0.016274    -0.021935    -0.005381     0.027316
   89 O      2.987511     7.924798    12.141767    -0.689218     0.086274    -0.019704     0.101170     0.134413     0.018418    -0.013793     0.028509     0.098541    -0.099611    -0.065399    -0.004569     0.069968
   90 O      7.694699     7.924798    12.141767    -0.689218     0.086274    -0.019704     0.101170     0.134413     0.018418    -0.013793     0.028509     0.098541    -0.099611    -0.065399    -0.004569     0.069968
   91 O      1.706695     1.321727     2.123155    -0.724394    -0.088501     0.136998    -0.136009     0.212366    -0.051335     0.027814    -0.066276    -0.113402    -0.128012    -0.073116    -0.054943     0.128060
   92 O      6.413883     1.321727     2.123155    -0.724394    -0.088501     0.136998    -0.136009     0.212366    -0.051335     0.027814    -0.066276    -0.113402    -0.128012    -0.073116    -0.054943     0.128060
   93 O      1.393827    10.147231     6.002348    -0.858519    -0.010655     0.027317     0.015630     0.033228    -0.014897    -0.002097    -0.002060    -0.017678    -0.023131    -0.014635    -0.006561     0.021197
   94 O      6.101015    10.147231     6.002348    -0.858519    -0.010655     0.027317     0.015630     0.033228    -0.014897    -0.002097    -0.002060    -0.017678    -0.023131    -0.014635    -0.006561     0.021197
   95 O      1.224227     8.342469    10.448530    -0.870949    -0.028270    -0.005880     0.013996     0.032088    -0.000410    -0.006584    -0.003882    -0.025232     0.020118    -0.017817     0.005247     0.012570
   96 O      5.931415     8.342469    10.448530    -0.870949    -0.028270    -0.005880     0.013996     0.032088    -0.000410    -0.006584    -0.003882    -0.025232     0.020118    -0.017817     0.005247     0.012570
 
The sperically averaged electron density of each atom fit to a function of the form exp(a - br) for r >=rmin_cloud_penetration
atom number,atomic symbol, x, y, z, a, b, Rsquared where a and b are in atomic units and Rsquared is the squared correlation coefficient
    1 Ni     2.497408     2.657820     3.638656    -0.944488     1.751278     0.999995
    2 Ni     7.204596     2.657820     3.638656    -0.944488     1.751278     0.999995
    3 Ni     2.353594     0.869448     8.365999    -0.963056     1.747165     0.999998
    4 Ni     7.060782     0.869448     8.365999    -0.963056     1.747165     0.999998
    5 Ni     2.284106     9.532609    11.576468    -1.064730     1.762082     0.999437
    6 Ni     6.991294     9.532609    11.576468    -1.064730     1.762082     0.999437
    7 Ni     0.069488     4.315899    12.035397    -1.064730     1.762082     0.999437
    8 Ni     4.776676     4.315899    12.035397    -1.064729     1.762082     0.999437
    9 Ni     9.270562     7.874530     3.179727    -0.944488     1.751278     0.999995
   10 Ni     4.563374     7.874530     3.179727    -0.944488     1.751278     0.999995
   11 Ni     0.000000     6.086158     7.907071    -0.963056     1.747165     0.999998
   12 Ni     4.707188     6.086158     7.907071    -0.963056     1.747165     0.999998
   13 Sb     2.415108    10.197677     1.984416     0.419968     1.769261     0.999882
   14 Sb     7.122296    10.197677     1.984416     0.419968     1.769261     0.999882
   15 Sb     2.351476     8.407219     6.257542     0.268936     1.749479     0.999997
   16 Sb     7.058664     8.407219     6.257542     0.268936     1.749479     0.999997
   17 Sb     2.274052     6.641446    10.790890     0.354184     1.765465     0.999993
   18 Sb     6.981240     6.641446    10.790890     0.354184     1.765465     0.999993
   19 Sb     9.352862     4.980967     2.443344     0.419968     1.769261     0.999882
   20 Sb     4.645674     4.980967     2.443344     0.419968     1.769261     0.999882
   21 Sb     0.002118     3.190509     6.716471     0.268936     1.749479     0.999997
   22 Sb     4.709306     3.190509     6.716471     0.268936     1.749479     0.999997
   23 Sb     0.079542     1.424736    11.249819     0.354184     1.765465     0.999993
   24 Sb     4.786730     1.424736    11.249819     0.354184     1.765465     0.999993
   25 Sb     2.325859     5.511068     5.114400     0.294488     1.751717     0.999998
   26 Sb     7.033047     5.511068     5.114400     0.294488     1.751717     0.999998
   27 Sb     2.403566     3.737835     9.510800     0.290076     1.752643     0.999997
   28 Sb     7.110754     3.737835     9.510800     0.290076     1.752643     0.999997
   29 Sb     0.027735     0.294358     5.573328     0.294488     1.751717     0.999998
   30 Sb     4.734923     0.294358     5.573328     0.294488     1.751717     0.999998
   31 Sb     9.364404     8.954545     9.051871     0.290076     1.752643     0.999997
   32 Sb     4.657216     8.954545     9.051871     0.290076     1.752643     0.999997
   33 O      3.704180     3.407711     2.067296    -1.329442     1.749374     0.999854
   34 O      8.411368     3.407711     2.067296    -1.329442     1.749374     0.999854
   35 O      3.785991     1.419978     6.964092    -0.870745     1.750516     0.999998
   36 O      8.493179     1.419978     6.964092    -0.870745     1.750516     0.999998
   37 O      3.716184    10.117152    10.441889    -0.816388     1.757518     0.999996
   38 O      8.423372    10.117152    10.441889    -0.816388     1.757518     0.999996
   39 O      0.978747     2.060715     5.328227    -0.879453     1.752677     0.999998
   40 O      5.685935     2.060715     5.328227    -0.879453     1.752677     0.999998
   41 O      0.919606     0.288776     9.768633    -0.833929     1.752510     0.999998
   42 O      5.626794     0.288776     9.768633    -0.833929     1.752510     0.999998
   43 O      1.374847     7.277425     4.869298    -0.879453     1.752677     0.999998
   44 O      6.082035     7.277425     4.869298    -0.879453     1.752677     0.999998
   45 O      1.433988     5.505486     9.309705    -0.833929     1.752510     0.999998
   46 O      6.141176     5.505486     9.309705    -0.833929     1.752510     0.999998
   47 O      3.356602     8.624421     1.608367    -1.329442     1.749374     0.999854
   48 O      8.063790     8.624421     1.608367    -1.329442     1.749374     0.999854
   49 O      3.274791     6.636688     6.505164    -0.870745     1.750516     0.999998
   50 O      7.981979     6.636688     6.505164    -0.870745     1.750516     0.999998
   51 O      3.344598     4.900442    10.900817    -0.816389     1.757518     0.999996
   52 O      8.051786     4.900442    10.900817    -0.816389     1.757518     0.999996
   53 O      3.697939     9.012336     4.824923    -0.822470     1.752364     0.999998
   54 O      8.405127     9.012336     4.824923    -0.822470     1.752364     0.999998
   55 O      3.680306     7.227877     9.368045    -0.840563     1.750484     0.999999
   56 O      8.387494     7.227877     9.368045    -0.840563     1.750484     0.999999
   57 O      0.975414     9.626165     3.224832    -0.832650     1.753154     0.999994
   58 O      5.682602     9.626165     3.224832    -0.832650     1.753154     0.999994
   59 O      0.988735     7.915533     7.702193    -0.837557     1.749894     0.999999
   60 O      5.695923     7.915533     7.702193    -0.837557     1.749894     0.999999
   61 O      1.014832     5.837269    12.142219    -1.447940     1.707813     0.996789
   62 O      5.722020     5.837269    12.142219    -1.447940     1.707813     0.996789
   63 O      1.378180     4.409455     3.683760    -0.832650     1.753154     0.999994
   64 O      6.085368     4.409455     3.683760    -0.832650     1.753154     0.999994
   65 O      1.364859     2.698823     8.161121    -0.837557     1.749894     0.999999
   66 O      6.072047     2.698823     8.161121    -0.837557     1.749894     0.999999
   67 O      1.338762     0.620559    12.601148    -1.447940     1.707813     0.996789
   68 O      6.045950     0.620559    12.601148    -1.447940     1.707813     0.996789
   69 O      3.362843     3.795626     5.283851    -0.822470     1.752364     0.999998
   70 O      8.070031     3.795626     5.283851    -0.822470     1.752364     0.999998
   71 O      3.380476     2.011167     9.826974    -0.840563     1.750484     0.999999
   72 O      8.087664     2.011167     9.826974    -0.840563     1.750484     0.999999
   73 O      0.959767     4.930521     6.461277    -0.853943     1.749394     0.999998
   74 O      5.666955     4.930521     6.461277    -0.853943     1.749394     0.999998
   75 O      1.129367     3.125759    10.907458    -0.787818     1.758928     0.999996
   76 O      5.836555     3.125759    10.907458    -0.787818     1.758928     0.999996
   77 O      0.646899     6.538437     1.664227    -1.346682     1.751826     0.999856
   78 O      5.354087     6.538437     1.664227    -1.346682     1.751826     0.999856
   79 O      3.605028     6.110249     3.684607    -0.798018     1.755721     0.999996
   80 O      8.312216     6.110249     3.684607    -0.798018     1.755721     0.999996
   81 O      3.718453     4.256794     8.111974    -0.841812     1.750592     0.999999
   82 O      8.425641     4.256794     8.111974    -0.841812     1.750592     0.999999
   83 O      4.073271     2.708088    12.600696    -1.695205     1.679827     0.995796
   84 O      8.780459     2.708088    12.600696    -1.695205     1.679827     0.995796
   85 O      3.455754     0.893539     4.143536    -0.798018     1.755721     0.999996
   86 O      8.162942     0.893539     4.143536    -0.798018     1.755721     0.999996
   87 O      3.342329     9.473504     7.653045    -0.841812     1.750592     0.999999
   88 O      8.049517     9.473504     7.653045    -0.841812     1.750592     0.999999
   89 O      2.987511     7.924798    12.141767    -1.695205     1.679827     0.995796
   90 O      7.694699     7.924798    12.141767    -1.695205     1.679827     0.995796
   91 O      1.706695     1.321727     2.123155    -1.346682     1.751826     0.999856
   92 O      6.413883     1.321727     2.123155    -1.346682     1.751826     0.999856
   93 O      1.393827    10.147231     6.002348    -0.853943     1.749394     0.999998
   94 O      6.101015    10.147231     6.002348    -0.853943     1.749394     0.999998
   95 O      1.224227     8.342469    10.448530    -0.787818     1.758928     0.999996
   96 O      5.931415     8.342469    10.448530    -0.787818     1.758928     0.999996
 
 2023/11/27  22:39:33
