   48
jmolscript: load "" {1 1 1} spacegroup "x,y,z" unitcell [{      7.258087     0.000000     0.000000 }, {     -2.917651     5.944904     0.000000 }, {      0.000000     0.000000    41.970402 }]
Hf     0.234708     4.047844    16.122384     2.282281
Hf     3.840203     5.827373    19.283553     2.188861
Hf     3.170049     1.698334    22.501256     2.184700
Hf    -0.406823     3.442617    25.572818     2.307878
Hf     3.578607     3.763564    16.445598     2.122065
Hf    -0.028280     5.582550    19.761638     2.180145
Hf    -0.725719     1.413526    22.929858     2.180369
Hf     2.956325     3.166381    26.135725     2.301010
Hf     1.066946     0.715529    16.397290     2.307667
Hf     4.748111     2.459157    19.469188     2.184204
Hf     1.160097     4.275212    22.686849     2.188684
Hf     0.425343     0.110242    25.848060     2.282494
Hf     4.961942     0.991794    15.834551     2.300459
Hf     1.385628     2.744197    19.040544     2.179509
Hf    -2.229722     4.520059    22.208890     2.179770
Hf     4.339614     0.394647    25.525097     2.122916
O     -0.347676     2.027783    15.539793    -1.126113
O      3.252297     3.872368    18.720100    -1.100251
O     -0.369573     5.678596    21.912957    -1.113910
O      6.178680     1.522300    25.053140    -1.158364
O      2.066825     4.749289    15.386769    -1.105281
O      1.429461     0.576567    18.478183    -1.118569
O      5.084656     2.379442    21.691395    -1.106801
O      1.446991     4.174226    24.842491    -1.167452
O      1.739443     2.635638    16.917010    -1.158031
O     -1.888425     4.423859    20.057487    -1.114519
O      4.665760     0.285349    23.249714    -1.100954
O      1.007061     2.130654    26.430777    -1.126594
O      6.471258    -0.016027    17.127827    -1.167046
O      2.833479     1.778293    20.279007    -1.106339
O     -0.769070     3.581151    23.491967    -1.118627
O      2.933822     5.353743    26.583801    -1.105760
O      2.999657     0.228076    15.899605    -1.115745
O     -0.524573     2.009169    19.218163    -1.074038
O      3.125684     3.813751    22.393854    -1.064263
O     -0.466719     5.545888    25.832782    -1.106526
O      4.540083     2.093260    17.458722    -1.083185
O      0.943805     3.942185    20.635671    -1.065864
O     -2.611652     5.717470    23.858705    -1.082760
O      3.839148     1.612948    27.040061    -1.081397
O     -1.790744     4.557221    16.137745    -1.106320
O      4.792044     0.343615    19.576087    -1.064441
O      1.184845     2.147620    22.753162    -1.074044
O      4.918520     3.929885    26.070629    -1.115856
O      4.078415     2.545079    14.930467    -1.081302
O      0.353149     4.384563    18.111949    -1.082818
O      6.974274     0.215503    21.334731    -1.065867
O      3.378561     2.064814    24.511722    -1.083972
 
 Chargemol version 3.5 September 26, 2017.
See ddec.sourceforge.net for latest version.
 
Computational parameters:
Number of radial integration shells =    100
Cutoff radius (pm) =    500
Error in the integrated total number of electrons before renormalization (e) =    1.6795E-05
Charge convergence tolerance =    1.0000E-05
Minimum radius for electron cloud penetration fitting (pm) =    200
Minimum decay exponent for electron density of buried atom tails =   1.7500
Maximum decay exponent for electron density of buried atom tails =  2.5000
Number of iterations to convergence =      7
 
The following XYZ coordinates are in angstroms. The atomic dipoles and quadrupoles are in atomic units.
atom number, atomic symbol, x, y, z, net_charge, dipole_x, dipole_y, dipole_z, dipole_mag, Qxy, Qxz, Qyz,Q(x^2-y^2), Q(3z^2 - R^2), three eigenvalues of traceless quadrupole moment tensor
    1 Hf     0.234708     4.047844    16.122384     2.282281    -0.038820     0.016539    -0.126134     0.133005    -0.011561     0.041415    -0.015166     0.025173     0.852684    -0.159206    -0.129721     0.288927
    2 Hf     3.840203     5.827373    19.283553     2.188861    -0.051533    -0.006896     0.001776     0.052023     0.016411    -0.014614     0.000801     0.033953     0.062173    -0.034722     0.003588     0.031133
    3 Hf     3.170049     1.698334    22.501256     2.184700    -0.044203    -0.007051     0.018329     0.048369     0.022265    -0.016719    -0.011604     0.014586     0.093607    -0.039033    -0.003949     0.042981
    4 Hf    -0.406823     3.442617    25.572818     2.307878    -0.034739    -0.002634     0.130534     0.135104     0.054088    -0.001621     0.023603     0.007611     0.926987    -0.209373    -0.100814     0.310187
    5 Hf     3.578607     3.763564    16.445598     2.122065    -0.005057     0.000360    -0.041176     0.041486     0.048811    -0.014075    -0.036054     0.022662     0.096045    -0.070258     0.002336     0.067922
    6 Hf    -0.028280     5.582550    19.761638     2.180145     0.004982    -0.010131    -0.035147     0.036915     0.006005    -0.022797    -0.008032     0.031970     0.057841    -0.027204    -0.010884     0.038088
    7 Hf    -0.725719     1.413526    22.929858     2.180369    -0.001443    -0.010755    -0.038863     0.040349     0.007365    -0.037796    -0.026963     0.013732     0.060244    -0.038505    -0.018792     0.057297
    8 Hf     2.956325     3.166381    26.135725     2.301010     0.005798     0.010095     0.097772     0.098463     0.014415    -0.088735     0.068480     0.092512     0.820077    -0.200741    -0.101451     0.302192
    9 Hf     1.066946     0.715529    16.397290     2.307667     0.036724     0.002345    -0.130946     0.136018     0.053714    -0.001776     0.023938     0.008389     0.929271    -0.209438    -0.101540     0.310978
   10 Hf     4.748111     2.459157    19.469188     2.184204     0.043667     0.006367    -0.017808     0.047587     0.023014    -0.016601    -0.011494     0.013315     0.092261    -0.039345    -0.003350     0.042694
   11 Hf     1.160097     4.275212    22.686849     2.188684     0.049464     0.007029    -0.001253     0.049976     0.016649    -0.014365     0.000765     0.034741     0.066417    -0.035806     0.004050     0.031757
   12 Hf     0.425343     0.110242    25.848060     2.282494     0.039721    -0.016447     0.126355     0.133469    -0.011063     0.041324    -0.015031     0.026426     0.851978    -0.159230    -0.129440     0.288669
   13 Hf     4.961942     0.991794    15.834551     2.300459    -0.005486    -0.010167    -0.098118     0.098796     0.014523    -0.088374     0.067887     0.092715     0.821294    -0.200815    -0.101443     0.302259
   14 Hf     1.385628     2.744197    19.040544     2.179509    -0.000029     0.010773     0.038928     0.040391     0.007634    -0.038422    -0.027138     0.013717     0.060098    -0.038879    -0.019101     0.057980
   15 Hf    -2.229722     4.520059    22.208890     2.179770    -0.005439     0.009955     0.034530     0.036346     0.005250    -0.022958    -0.007918     0.032089     0.059297    -0.027345    -0.010964     0.038309
   16 Hf     4.339614     0.394647    25.525097     2.122916     0.004720    -0.000586     0.040578     0.040856     0.049318    -0.014170    -0.036161     0.022391     0.095275    -0.070569     0.002307     0.068261
   17 O     -0.347676     2.027783    15.539793    -1.126113    -0.031784     0.024995    -0.086500     0.095484    -0.027252    -0.020879     0.014399    -0.012655    -0.012661    -0.029433    -0.013384     0.042816
   18 O      3.252297     3.872368    18.720100    -1.100251    -0.042076     0.016045    -0.008665     0.045857    -0.027608    -0.007639     0.000479     0.018089     0.067184    -0.040518     0.013374     0.027145
   19 O     -0.369573     5.678596    21.912957    -1.113910    -0.045094     0.021586     0.031060     0.058857    -0.030320    -0.009144    -0.000723     0.018293     0.049957    -0.040639     0.012810     0.027830
   20 O      6.178680     1.522300    25.053140    -1.158364    -0.069987     0.005082     0.019305     0.072778    -0.029018     0.007662     0.011886     0.008721     0.069288    -0.043826     0.017378     0.026448
   21 O      2.066825     4.749289    15.386769    -1.105281     0.021104     0.011435    -0.119242     0.121634     0.012928     0.013872    -0.016527    -0.006575     0.012747    -0.029041     0.009567     0.019474
   22 O      1.429461     0.576567    18.478183    -1.118569     0.043786    -0.020066    -0.009911     0.049174     0.008711    -0.029704     0.014134    -0.003904    -0.065046    -0.044605     0.017595     0.027010
   23 O      5.084656     2.379442    21.691395    -1.106801     0.040946    -0.022115    -0.048563     0.067261     0.004946    -0.029102     0.017784     0.003538    -0.041818    -0.040578     0.010209     0.030369
   24 O      1.446991     4.174226    24.842491    -1.167452     0.068909     0.004953    -0.037474     0.078595    -0.001714    -0.032547     0.016409    -0.001141    -0.027853    -0.039032     0.003583     0.035449
   25 O      1.739443     2.635638    16.917010    -1.158031     0.070515    -0.004900    -0.019526     0.073332    -0.028572     0.007498     0.011691     0.008796     0.069483    -0.043337     0.016940     0.026397
   26 O     -1.888425     4.423859    20.057487    -1.114519     0.045045    -0.021471    -0.030543     0.058506    -0.030481    -0.009761    -0.001072     0.019000     0.050820    -0.041168     0.012847     0.028321
   27 O      4.665760     0.285349    23.249714    -1.100954     0.042071    -0.016187     0.008617     0.045893    -0.027482    -0.007692     0.000756     0.017973     0.068011    -0.040494     0.013075     0.027418
   28 O      1.007061     2.130654    26.430777    -1.126594     0.031802    -0.024849     0.086752     0.095680    -0.027673    -0.020942     0.014086    -0.013162    -0.012768    -0.029980    -0.013038     0.043018
   29 O      6.471258    -0.016027    17.127827    -1.167046    -0.068377    -0.005067     0.037592     0.078194    -0.001848    -0.032597     0.016249    -0.001111    -0.026079    -0.038732     0.003184     0.035549
   30 O      2.833479     1.778293    20.279007    -1.106339    -0.040983     0.022175     0.048114     0.066980     0.004764    -0.028683     0.017898     0.003494    -0.041868    -0.040257     0.010160     0.030097
   31 O     -0.769070     3.581151    23.491967    -1.118627    -0.044055     0.019818     0.009811     0.049294     0.008198    -0.029565     0.014008    -0.004606    -0.065593    -0.044448     0.017792     0.026656
   32 O      2.933822     5.353743    26.583801    -1.105760    -0.021029    -0.011466     0.119527     0.121903     0.012964     0.013890    -0.016446    -0.006398     0.014052    -0.029051     0.009510     0.019542
   33 O      2.999657     0.228076    15.899605    -1.115745    -0.002848     0.040823    -0.042951     0.059324    -0.009191     0.034044     0.015355    -0.042792     0.196100    -0.066157    -0.010038     0.076196
   34 O     -0.524573     2.009169    19.218163    -1.074038    -0.012009     0.040359     0.006199     0.042562    -0.005334     0.027817     0.009497    -0.062702     0.226548    -0.074990    -0.006491     0.081481
   35 O      3.125684     3.813751    22.393854    -1.064263    -0.015296     0.038640    -0.002594     0.041638    -0.004930     0.024646     0.007315    -0.061499     0.260434    -0.078387    -0.012523     0.090910
   36 O     -0.466719     5.545888    25.832782    -1.106526    -0.001601     0.042635     0.044628     0.061741    -0.003483    -0.001228    -0.016473    -0.045877     0.271850    -0.068549    -0.024423     0.092973
   37 O      4.540083     2.093260    17.458722    -1.083185    -0.003995    -0.028677     0.036587     0.046657     0.026629     0.002860    -0.020759     0.051905    -0.233961    -0.083002     0.006627     0.076375
   38 O      0.943805     3.942185    20.635671    -1.065864     0.021617    -0.043095     0.024403     0.054036     0.041683    -0.001101    -0.026070     0.063425    -0.210948    -0.079639    -0.008920     0.088559
   39 O     -2.611652     5.717470    23.858705    -1.082760     0.020630    -0.036463    -0.011209     0.043368     0.034760    -0.008586    -0.023974     0.067006    -0.211882    -0.077867    -0.007681     0.085548
   40 O      3.839148     1.612948    27.040061    -1.081397     0.026157    -0.026295     0.130266     0.135443     0.047101    -0.015350     0.013884     0.047895    -0.228018    -0.082069    -0.008981     0.091050
   41 O     -1.790744     4.557221    16.137745    -1.106320     0.001537    -0.042383    -0.044327     0.061348    -0.003686    -0.001030    -0.016344    -0.046919     0.271972    -0.069110    -0.023875     0.092985
   42 O      4.792044     0.343615    19.576087    -1.064441     0.015268    -0.038767     0.002637     0.041749    -0.004546     0.024927     0.007403    -0.061068     0.261275    -0.078329    -0.012953     0.091282
   43 O      1.184845     2.147620    22.753162    -1.074044     0.011828    -0.039910    -0.006057     0.042064    -0.004944     0.028138     0.009495    -0.063782     0.226166    -0.075486    -0.005988     0.081474
   44 O      4.918520     3.929885    26.070629    -1.115856     0.003034    -0.040403     0.042924     0.059026    -0.009514     0.034144     0.015646    -0.042316     0.196837    -0.066288    -0.010237     0.076525
   45 O      4.078415     2.545079    14.930467    -1.081302    -0.026185     0.026384    -0.130021     0.135230     0.047165    -0.015082     0.013974     0.048814    -0.228013    -0.082031    -0.009270     0.091301
   46 O      0.353149     4.384563    18.111949    -1.082818    -0.021044     0.036428     0.011083     0.043505     0.034724    -0.008802    -0.023994     0.066994    -0.211230    -0.077683    -0.007775     0.085459
   47 O      6.974274     0.215503    21.334731    -1.065867    -0.021393     0.043005    -0.025091     0.054191     0.041636    -0.001063    -0.025943     0.063342    -0.209690    -0.079215    -0.009062     0.088277
   48 O      3.378561     2.064814    24.511722    -1.083972     0.004114     0.028545    -0.036888     0.046824     0.026660     0.002803    -0.021542     0.051894    -0.236374    -0.084081     0.007259     0.076822
 
The sperically averaged electron density of each atom fit to a function of the form exp(a - br) for r >=rmin_cloud_penetration
atom number,atomic symbol, x, y, z, a, b, Rsquared where a and b are in atomic units and Rsquared is the squared correlation coefficient
    1 Hf     0.234708     4.047844    16.122384    -0.012079     1.762718     0.999917
    2 Hf     3.840203     5.827373    19.283553     0.065550     1.750548     0.999997
    3 Hf     3.170049     1.698334    22.501256     0.055275     1.748784     0.999997
    4 Hf    -0.406823     3.442617    25.572818    -0.078965     1.752994     0.999971
    5 Hf     3.578607     3.763564    16.445598     0.286737     1.784994     0.999938
    6 Hf    -0.028280     5.582550    19.761638     0.072035     1.751270     0.999993
    7 Hf    -0.725719     1.413526    22.929858     0.085403     1.752497     0.999997
    8 Hf     2.956325     3.166381    26.135725    -0.037627     1.757878     0.999945
    9 Hf     1.066946     0.715529    16.397290    -0.079224     1.753014     0.999971
   10 Hf     4.748111     2.459157    19.469188     0.056261     1.748722     0.999998
   11 Hf     1.160097     4.275212    22.686849     0.066744     1.750573     0.999997
   12 Hf     0.425343     0.110242    25.848060    -0.010973     1.762985     0.999920
   13 Hf     4.961942     0.991794    15.834551    -0.039208     1.757596     0.999945
   14 Hf     1.385628     2.744197    19.040544     0.087812     1.752676     0.999997
   15 Hf    -2.229722     4.520059    22.208890     0.071971     1.751085     0.999993
   16 Hf     4.339614     0.394647    25.525097     0.280805     1.784063     0.999938
   17 O     -0.347676     2.027783    15.539793    -1.370020     1.716016     0.999873
   18 O      3.252297     3.872368    18.720100    -0.721377     1.750912     0.999995
   19 O     -0.369573     5.678596    21.912957    -0.711157     1.750152     0.999997
   20 O      6.178680     1.522300    25.053140    -0.648225     1.752783     0.999997
   21 O      2.066825     4.749289    15.386769    -1.243055     1.721205     0.999847
   22 O      1.429461     0.576567    18.478183    -0.671721     1.754400     0.999996
   23 O      5.084656     2.379442    21.691395    -0.721557     1.750074     0.999996
   24 O      1.446991     4.174226    24.842491    -0.651218     1.752486     0.999994
   25 O      1.739443     2.635638    16.917010    -0.649472     1.752815     0.999997
   26 O     -1.888425     4.423859    20.057487    -0.710941     1.750113     0.999997
   27 O      4.665760     0.285349    23.249714    -0.720458     1.750914     0.999995
   28 O      1.007061     2.130654    26.430777    -1.369046     1.716127     0.999875
   29 O      6.471258    -0.016027    17.127827    -0.649444     1.752500     0.999994
   30 O      2.833479     1.778293    20.279007    -0.724205     1.750074     0.999996
   31 O     -0.769070     3.581151    23.491967    -0.672777     1.754366     0.999996
   32 O      2.933822     5.353743    26.583801    -1.242212     1.721633     0.999846
   33 O      2.999657     0.228076    15.899605    -1.114982     1.727762     0.999865
   34 O     -0.524573     2.009169    19.218163    -0.748531     1.750924     0.999997
   35 O      3.125684     3.813751    22.393854    -0.771584     1.749096     0.999998
   36 O     -0.466719     5.545888    25.832782    -1.000534     1.734322     0.999984
   37 O      4.540083     2.093260    17.458722    -0.720734     1.754198     0.999995
   38 O      0.943805     3.942185    20.635671    -0.788354     1.747914     0.999998
   39 O     -2.611652     5.717470    23.858705    -0.722425     1.754037     0.999998
   40 O      3.839148     1.612948    27.040061    -1.023726     1.743446     0.999606
   41 O     -1.790744     4.557221    16.137745    -1.001256     1.734151     0.999985
   42 O      4.792044     0.343615    19.576087    -0.772513     1.749103     0.999998
   43 O      1.184845     2.147620    22.753162    -0.749969     1.750929     0.999997
   44 O      4.918520     3.929885    26.070629    -1.114848     1.727654     0.999866
   45 O      4.078415     2.545079    14.930467    -1.023977     1.743604     0.999605
   46 O      0.353149     4.384563    18.111949    -0.721421     1.754039     0.999998
   47 O      6.974274     0.215503    21.334731    -0.786500     1.747951     0.999998
   48 O      3.378561     2.064814    24.511722    -0.719656     1.754185     0.999995
 
 2024/06/21  20:40:31
