   48
jmolscript: load "" {1 1 1} spacegroup "x,y,z" unitcell [{      7.334865     0.000000     0.000000 }, {     -2.942679     6.003801     0.000000 }, {      0.000000     0.000000    42.086899 }]
Zr     1.952082     0.788887    16.485228     2.344611
Zr     5.648091     2.620911    19.797972     2.416164
Zr     2.000642     4.429346    23.008234     2.415423
Zr     1.321780     0.203985    26.240424     2.530539
Zr     3.796515     3.708086    16.385229     2.540382
Zr     0.189511     5.469199    19.509550     2.418458
Zr    -0.495573     1.307250    22.752683     2.424115
Zr     3.156269     3.117179    25.961935     2.506830
Zr     5.906989     1.049158    16.124922     2.507210
Zr     2.224023     2.858434    19.334090     2.424738
Zr    -1.403920     4.700340    22.577096     2.419443
Zr     5.267000     0.458162    25.701880     2.541058
Zr     0.407063     3.962797    15.846138     2.530680
Zr     4.119684     5.740306    19.078412     2.414548
Zr     3.415012     1.544784    22.288885     2.417473
Zr    -0.223493     3.377606    25.601755     2.344430
O     -0.481779     5.552723    14.943711    -1.089588
O      6.023577     1.402452    18.136044    -1.199093
O      2.438302     3.209860    21.403587    -1.173453
O     -1.192962     5.090131    24.603286    -1.200300
O     -1.583096     3.217581    15.902240    -1.202258
O      2.190951     5.010094    19.260564    -1.177758
O      1.490630     0.842045    22.465776    -1.169491
O      5.200517     2.600576    25.943164    -1.203016
O      4.481918     5.632586    16.936442    -1.276715
O      3.756407     1.446118    20.117243    -1.238676
O      0.099859     3.276394    23.344298    -1.221338
O      3.757551     5.130536    26.528340    -1.227751
O      1.938943     2.960636    17.138038    -1.287772
O     -1.738186     4.781571    20.318924    -1.230073
O      4.903403     0.607050    23.575566    -1.248608
O      1.306844     2.403706    26.672867    -1.203118
O      0.421356     1.762608    15.414285    -1.202922
O      4.159774     3.558585    18.511586    -1.248100
O      0.523150     5.387613    21.768018    -1.231217
O     -0.210277     1.205623    24.948945    -1.287113
O      2.363213     5.039555    15.558264    -1.227690
O      1.628407     0.889559    18.742811    -1.221478
O      5.307389     2.719242    21.970077    -1.239059
O      1.639051     4.537132    25.150626    -1.276993
O      3.863208     1.565737    16.144913    -1.202887
O      0.237376     3.323632    19.620954    -1.168863
O      3.929248     5.159144    22.826335    -1.177948
O      3.311452     0.949267    26.183943    -1.202217
O     -0.020043     5.080777    17.483235    -1.200063
O      6.625535     0.956105    20.683017    -1.172630
O      3.038900     2.763027    23.950770    -1.198889
O     -0.731845     4.618220    27.143314    -1.089025
 
 Chargemol version 3.5 September 26, 2017.
See ddec.sourceforge.net for latest version.
 
Computational parameters:
Number of radial integration shells =    100
Cutoff radius (pm) =    500
Error in the integrated total number of electrons before renormalization (e) =    1.4561E-05
Charge convergence tolerance =    1.0000E-05
Minimum radius for electron cloud penetration fitting (pm) =    200
Minimum decay exponent for electron density of buried atom tails =   1.7500
Maximum decay exponent for electron density of buried atom tails =  2.5000
Number of iterations to convergence =      7
 
The following XYZ coordinates are in angstroms. The atomic dipoles and quadrupoles are in atomic units.
atom number, atomic symbol, x, y, z, net_charge, dipole_x, dipole_y, dipole_z, dipole_mag, Qxy, Qxz, Qyz,Q(x^2-y^2), Q(3z^2 - R^2), three eigenvalues of traceless quadrupole moment tensor
    1 Zr     1.952082     0.788887    16.485228     2.344611    -0.006137    -0.002110    -0.035856     0.036438     0.039351    -0.014222    -0.025321     0.028243     0.077962    -0.056897     0.002567     0.054330
    2 Zr     5.648091     2.620911    19.797972     2.416164     0.007453    -0.017621    -0.033544     0.038617     0.008381    -0.019194    -0.005361     0.027341     0.050895    -0.024518    -0.008217     0.032735
    3 Zr     2.000642     4.429346    23.008234     2.415423     0.003397    -0.016535    -0.035322     0.039148     0.008517    -0.028904    -0.018478     0.021460     0.049579    -0.027793    -0.017570     0.045362
    4 Zr     1.321780     0.203985    26.240424     2.530539     0.008299    -0.001440     0.064745     0.065291     0.019801    -0.061891     0.047940     0.079670     0.610094    -0.157169    -0.064940     0.222108
    5 Zr     3.796515     3.708086    16.385229     2.540382     0.033707     0.003300    -0.097362     0.103084     0.045001    -0.000990     0.010523     0.006779     0.694276    -0.161020    -0.070721     0.231741
    6 Zr     0.189511     5.469199    19.509550     2.418458     0.044260    -0.001888    -0.015995     0.047099     0.016355    -0.013440    -0.005893     0.015760     0.085408    -0.032474    -0.002787     0.035261
    7 Zr    -0.495573     1.307250    22.752683     2.424115     0.049636    -0.000184     0.002203     0.049685     0.013308    -0.011191    -0.000862     0.026473     0.075622    -0.031601     0.001452     0.030149
    8 Zr     3.156269     3.117179    25.961935     2.506830     0.033110    -0.015905     0.090933     0.098072    -0.012233     0.021060    -0.005754     0.020314     0.612857    -0.118089    -0.087824     0.205912
    9 Zr     5.906989     1.049158    16.124922     2.507210    -0.033333     0.015400    -0.090852     0.097992    -0.012631     0.020993    -0.005846     0.019927     0.611241    -0.118011    -0.087362     0.205373
   10 Zr     2.224023     2.858434    19.334090     2.424738    -0.049740     0.000464    -0.002382     0.049799     0.012979    -0.011372    -0.000646     0.026885     0.073810    -0.031241     0.001448     0.029794
   11 Zr    -1.403920     4.700340    22.577096     2.419443    -0.043607     0.001982     0.016164     0.046549     0.016375    -0.013251    -0.005595     0.016158     0.085490    -0.032598    -0.002472     0.035070
   12 Zr     5.267000     0.458162    25.701880     2.541058    -0.033927    -0.002726     0.097611     0.103375     0.044915    -0.001180     0.010594     0.006059     0.693737    -0.160826    -0.070740     0.231566
   13 Zr     0.407063     3.962797    15.846138     2.530680    -0.007827     0.002046    -0.065014     0.065515     0.019351    -0.061629     0.047821     0.079782     0.611116    -0.157041    -0.065272     0.222313
   14 Zr     4.119684     5.740306    19.078412     2.414548    -0.003326     0.017280     0.035244     0.039393     0.008477    -0.028786    -0.019219     0.022474     0.049578    -0.028716    -0.016987     0.045703
   15 Zr     3.415012     1.544784    22.288885     2.417473    -0.007922     0.018206     0.033523     0.038961     0.008921    -0.019142    -0.005313     0.027958     0.051003    -0.025086    -0.007815     0.032901
   16 Zr    -0.223493     3.377606    25.601755     2.344430     0.007123     0.001871     0.035575     0.036329     0.039470    -0.014114    -0.025663     0.028011     0.078984    -0.057222     0.002613     0.054609
   17 O     -0.481779     5.552723    14.943711    -1.089588    -0.027578     0.035623    -0.151125     0.157697     0.071654    -0.007926     0.004089     0.074177    -0.195943    -0.068293    -0.045169     0.113462
   18 O      6.023577     1.402452    18.136044    -1.199093    -0.025663     0.039298     0.014193     0.049035     0.026415    -0.006082    -0.021925     0.067113    -0.189431    -0.070233    -0.005285     0.075518
   19 O      2.438302     3.209860    21.403587    -1.173453    -0.023936     0.046808    -0.023023     0.057393     0.034905     0.005463    -0.024907     0.061064    -0.194151    -0.075085    -0.003855     0.078940
   20 O     -1.192962     5.090131    24.603286    -1.200300     0.003940     0.035380    -0.038643     0.052541     0.016997     0.008585    -0.020217     0.058394    -0.214124    -0.077405     0.007865     0.069539
   21 O     -1.583096     3.217581    15.902240    -1.202258    -0.006934     0.042611    -0.049401     0.065607    -0.009909     0.028451     0.006742    -0.050387     0.180687    -0.064053    -0.003064     0.067118
   22 O      2.190951     5.010094    19.260564    -1.177758    -0.016644     0.043060     0.007773     0.046815     0.000052     0.028718     0.013405    -0.063175     0.190566    -0.069659    -0.002442     0.072101
   23 O      1.490630     0.842045    22.465776    -1.169491    -0.019399     0.039696    -0.000442     0.044185    -0.001170     0.024050     0.008235    -0.058637     0.229048    -0.071506    -0.009460     0.080966
   24 O      5.200517     2.600576    25.943164    -1.203016    -0.003107     0.045151     0.055070     0.071281     0.000982     0.000810    -0.001462    -0.047660     0.256126    -0.066543    -0.018857     0.085400
   25 O      4.481918     5.632586    16.936442    -1.276715     0.082701    -0.006234    -0.018877     0.085057    -0.030628     0.009376     0.013265    -0.003479     0.072032    -0.046298     0.017697     0.028602
   26 O      3.756407     1.446118    20.117243    -1.238676     0.056709    -0.024421    -0.030592     0.068907    -0.032573    -0.010148    -0.000005     0.012139     0.036154    -0.039983     0.009467     0.030516
   27 O      0.099859     3.276394    23.344298    -1.221338     0.053679    -0.016347     0.003641     0.056231    -0.028510    -0.004865     0.000698     0.005464     0.046648    -0.036562     0.013464     0.023098
   28 O      3.757551     5.130536    26.528340    -1.227751     0.039165    -0.024958     0.107706     0.117292    -0.032378    -0.017346     0.008877    -0.014819    -0.014184    -0.033514    -0.008881     0.042394
   29 O      1.938943     2.960636    17.138038    -1.287772    -0.070269    -0.000442     0.049884     0.086177    -0.003692    -0.034388     0.017285    -0.002783    -0.017549    -0.039386     0.000744     0.038642
   30 O     -1.738186     4.781571    20.318924    -1.230073    -0.044115     0.025936     0.055615     0.075577    -0.000340    -0.030088     0.015500    -0.003021    -0.044553    -0.039567     0.007984     0.031583
   31 O      4.903403     0.607050    23.575566    -1.248608    -0.047288     0.024985     0.020716     0.057355     0.004622    -0.027881     0.010879    -0.004693    -0.073867    -0.042553     0.016897     0.025655
   32 O      1.306844     2.403706    26.672867    -1.203118    -0.023564    -0.005582     0.147037     0.149018     0.011622     0.014772    -0.017543    -0.009423     0.057521    -0.031872     0.001898     0.029975
   33 O      0.421356     1.762608    15.414285    -1.202922     0.023635     0.005782    -0.146772     0.148775     0.011320     0.014748    -0.017492    -0.009468     0.055998    -0.031465     0.001847     0.029618
   34 O      4.159774     3.558585    18.511586    -1.248100     0.047552    -0.025004    -0.020435     0.057480     0.004731    -0.027588     0.010937    -0.004861    -0.073806    -0.042360     0.017035     0.025325
   35 O      0.523150     5.387613    21.768018    -1.231217     0.044382    -0.025918    -0.055763     0.075836    -0.000126    -0.030240     0.015471    -0.002925    -0.044129    -0.039666     0.008077     0.031589
   36 O     -0.210277     1.205623    24.948945    -1.287113     0.070127     0.000603    -0.049980     0.086117    -0.003406    -0.034576     0.017108    -0.002598    -0.017590    -0.039555     0.000969     0.038586
   37 O      2.363213     5.039555    15.558264    -1.227690    -0.039310     0.024583    -0.107878     0.117419    -0.033029    -0.017253     0.008718    -0.014616    -0.014680    -0.033972    -0.008906     0.042878
   38 O      1.628407     0.889559    18.742811    -1.221478    -0.054168     0.016373    -0.003470     0.056694    -0.028519    -0.005120     0.000579     0.005289     0.044760    -0.036281     0.012982     0.023299
   39 O      5.307389     2.719242    21.970077    -1.239059    -0.056489     0.024380     0.030167     0.068523    -0.032171    -0.010214    -0.000314     0.012570     0.036937    -0.039821     0.009745     0.030076
   40 O      1.639051     4.537132    25.150626    -1.276993    -0.082759     0.005893     0.018757     0.085063    -0.030781     0.009387     0.013063    -0.003158     0.072604    -0.046463     0.017856     0.028606
   41 O      3.863208     1.565737    16.144913    -1.202887     0.002873    -0.044936    -0.054342     0.070573     0.001015     0.001147    -0.001624    -0.048095     0.256247    -0.066786    -0.018664     0.085450
   42 O      0.237376     3.323632    19.620954    -1.168863     0.019166    -0.039698     0.000536     0.044086    -0.000751     0.023820     0.008264    -0.058893     0.229114    -0.071538    -0.009393     0.080930
   43 O      3.929248     5.159144    22.826335    -1.177948     0.016642    -0.043134    -0.007806     0.046888     0.000316     0.028834     0.013653    -0.062870     0.190845    -0.069587    -0.002749     0.072336
   44 O      3.311452     0.949267    26.183943    -1.202217     0.006917    -0.042785     0.049108     0.065498    -0.009865     0.028657     0.006952    -0.051710     0.180697    -0.064728    -0.002478     0.067206
   45 O     -0.020043     5.080777    17.483235    -1.200063    -0.003389    -0.035261     0.038820     0.052553     0.016769     0.008709    -0.019871     0.058029    -0.213761    -0.077132     0.007913     0.069219
   46 O      6.625535     0.956105    20.683017    -1.172630     0.023899    -0.046569     0.023451     0.057356     0.034498     0.005121    -0.024779     0.061037    -0.194701    -0.075028    -0.003704     0.078732
   47 O      3.038900     2.763027    23.950770    -1.198889     0.025343    -0.039349    -0.013662     0.048758     0.026145    -0.005959    -0.022221     0.066841    -0.190262    -0.070633    -0.004741     0.075374
   48 O     -0.731845     4.618220    27.143314    -1.089025     0.027533    -0.035186     0.151265     0.157725     0.071373    -0.007954     0.003600     0.073740    -0.196075    -0.068043    -0.045106     0.113149
 
The sperically averaged electron density of each atom fit to a function of the form exp(a - br) for r >=rmin_cloud_penetration
atom number,atomic symbol, x, y, z, a, b, Rsquared where a and b are in atomic units and Rsquared is the squared correlation coefficient
    1 Zr     1.952082     0.788887    16.485228     0.144835     1.919348     0.998989
    2 Zr     5.648091     2.620911    19.797972     0.233318     1.971465     0.999731
    3 Zr     2.000642     4.429346    23.008234     0.250712     1.969515     0.999818
    4 Zr     1.321780     0.203985    26.240424     1.326430     2.262162     0.999676
    5 Zr     3.796515     3.708086    16.385229     1.215807     2.235188     0.999548
    6 Zr     0.189511     5.469199    19.509550     0.242306     1.973572     0.999817
    7 Zr    -0.495573     1.307250    22.752683     0.334114     1.993184     0.999849
    8 Zr     3.156269     3.117179    25.961935     1.308031     2.252235     0.999877
    9 Zr     5.906989     1.049158    16.124922     1.305944     2.251944     0.999876
   10 Zr     2.224023     2.858434    19.334090     0.358935     1.999275     0.999859
   11 Zr    -1.403920     4.700340    22.577096     0.262381     1.978460     0.999829
   12 Zr     5.267000     0.458162    25.701880     1.216251     2.235533     0.999546
   13 Zr     0.407063     3.962797    15.846138     1.324542     2.261652     0.999671
   14 Zr     4.119684     5.740306    19.078412     0.245557     1.968260     0.999814
   15 Zr     3.415012     1.544784    22.288885     0.263269     1.978799     0.999752
   16 Zr    -0.223493     3.377606    25.601755     0.148993     1.920190     0.998992
   17 O     -0.481779     5.552723    14.943711    -0.934034     1.733139     0.999825
   18 O      6.023577     1.402452    18.136044    -0.549158     1.754436     0.999999
   19 O      2.438302     3.209860    21.403587    -0.631678     1.747948     0.999999
   20 O     -1.192962     5.090131    24.603286    -0.546253     1.754805     0.999998
   21 O     -1.583096     3.217581    15.902240    -0.924690     1.732009     0.999903
   22 O      2.190951     5.010094    19.260564    -0.597706     1.751082     0.999997
   23 O      1.490630     0.842045    22.465776    -0.623607     1.748881     0.999998
   24 O      5.200517     2.600576    25.943164    -0.794204     1.739072     0.999979
   25 O      4.481918     5.632586    16.936442    -0.527630     1.752462     0.999995
   26 O      3.756407     1.446118    20.117243    -0.574971     1.750265     0.999998
   27 O      0.099859     3.276394    23.344298    -0.585524     1.751214     0.999997
   28 O      3.757551     5.130536    26.528340    -1.082620     1.725641     0.999932
   29 O      1.938943     2.960636    17.138038    -0.519194     1.753256     0.999991
   30 O     -1.738186     4.781571    20.318924    -0.593162     1.749857     0.999997
   31 O      4.903403     0.607050    23.575566    -0.535230     1.754149     0.999997
   32 O      1.306844     2.403706    26.672867    -0.991828     1.728548     0.999920
   33 O      0.421356     1.762608    15.414285    -0.991830     1.728337     0.999922
   34 O      4.159774     3.558585    18.511586    -0.535825     1.754131     0.999997
   35 O      0.523150     5.387613    21.768018    -0.588119     1.749819     0.999997
   36 O     -0.210277     1.205623    24.948945    -0.527295     1.752246     0.999993
   37 O      2.363213     5.039555    15.558264    -1.083165     1.725792     0.999930
   38 O      1.628407     0.889559    18.742811    -0.585694     1.751231     0.999997
   39 O      5.307389     2.719242    21.970077    -0.572018     1.750309     0.999998
   40 O      1.639051     4.537132    25.150626    -0.527106     1.752513     0.999995
   41 O      3.863208     1.565737    16.144913    -0.795476     1.739004     0.999978
   42 O      0.237376     3.323632    19.620954    -0.624650     1.748941     0.999998
   43 O      3.929248     5.159144    22.826335    -0.597998     1.751098     0.999997
   44 O      3.311452     0.949267    26.183943    -0.923876     1.732505     0.999900
   45 O     -0.020043     5.080777    17.483235    -0.545288     1.754793     0.999998
   46 O      6.625535     0.956105    20.683017    -0.633546     1.747960     0.999999
   47 O      3.038900     2.763027    23.950770    -0.551483     1.754481     0.999999
   48 O     -0.731845     4.618220    27.143314    -0.933445     1.733442     0.999821
 
 2024/06/21  20:44:44
